<?xml version="1.0" encoding="UTF-8"?>

<!-- generated on 2021-12-20 18:55:42 by Eclipse SUMO netconvert Version 1.11.0
<configuration xmlns:xsi="http://www.w3.org/2001/XMLSchema-instance" xsi:noNamespaceSchemaLocation="http://sumo.dlr.de/xsd/netconvertConfiguration.xsd">

    <input>
        <type-files value="/usr/share/sumo/data/typemap/osmNetconvert.typ.xml"/>
        <osm-files value="osm_bbox.osm.xml"/>
    </input>

    <output>
        <output-file value="osm.net.xml"/>
        <output.street-names value="true"/>
        <output.original-names value="true"/>
    </output>

    <projection>
        <proj.utm value="true"/>
    </projection>

    <processing>
        <geometry.remove value="true"/>
        <roundabouts.guess value="true"/>
    </processing>

    <tls_building>
        <tls.discard-simple value="true"/>
        <tls.join value="true"/>
        <tls.guess-signals value="true"/>
        <tls.default-type value="actuated"/>
    </tls_building>

    <ramp_guessing>
        <ramps.guess value="true"/>
    </ramp_guessing>

    <junctions>
        <junctions.join value="true"/>
        <junctions.corner-detail value="5"/>
    </junctions>

    <report>
        <verbose value="true"/>
        <aggregate-warnings value="5"/>
    </report>

</configuration>
-->

<net version="1.9" junctionCornerDetail="5" limitTurnSpeed="5.50" xmlns:xsi="http://www.w3.org/2001/XMLSchema-instance" xsi:noNamespaceSchemaLocation="http://sumo.dlr.de/xsd/net_file.xsd">

    <location netOffset="-666082.07,-4545187.01" convBoundary="0.00,0.00,2773.62,1958.03" origBoundary="28.976478,41.031156,29.022147,41.065828" projParameter="+proj=utm +zone=35 +ellps=WGS84 +datum=WGS84 +units=m +no_defs"/>

    <type id="highway.bridleway" priority="1" numLanes="1" speed="2.78" allow="pedestrian" oneway="1" width="2.00"/>
    <type id="highway.bus_guideway" priority="1" numLanes="1" speed="27.78" allow="bus" oneway="1"/>
    <type id="highway.cycleway" priority="1" numLanes="1" speed="8.33" allow="bicycle" oneway="0" width="1.00"/>
    <type id="highway.footway" priority="1" numLanes="1" speed="2.78" allow="pedestrian" oneway="1" width="2.00"/>
    <type id="highway.ford" priority="1" numLanes="1" speed="2.78" allow="army" oneway="0"/>
    <type id="highway.living_street" priority="2" numLanes="1" speed="2.78" disallow="tram rail_urban rail rail_electric rail_fast ship" oneway="0"/>
    <type id="highway.motorway" priority="14" numLanes="2" speed="39.44" allow="private emergency authority army vip passenger hov taxi bus coach delivery truck trailer motorcycle evehicle custom1 custom2" oneway="1"/>
    <type id="highway.motorway_link" priority="9" numLanes="1" speed="22.22" allow="private emergency authority army vip passenger hov taxi bus coach delivery truck trailer motorcycle evehicle custom1 custom2" oneway="1"/>
    <type id="highway.path" priority="1" numLanes="1" speed="2.78" allow="pedestrian bicycle" oneway="0" width="2.00"/>
    <type id="highway.pedestrian" priority="1" numLanes="1" speed="2.78" allow="pedestrian" oneway="1" width="2.00"/>
    <type id="highway.primary" priority="12" numLanes="2" speed="27.78" disallow="tram rail_urban rail rail_electric rail_fast ship" oneway="0"/>
    <type id="highway.primary_link" priority="7" numLanes="1" speed="22.22" disallow="tram rail_urban rail rail_electric rail_fast ship" oneway="0"/>
    <type id="highway.raceway" priority="15" numLanes="2" speed="83.33" allow="vip" oneway="0"/>
    <type id="highway.residential" priority="3" numLanes="1" speed="13.89" disallow="tram rail_urban rail rail_electric rail_fast ship" oneway="0"/>
    <type id="highway.secondary" priority="11" numLanes="1" speed="27.78" disallow="tram rail_urban rail rail_electric rail_fast ship" oneway="0"/>
    <type id="highway.secondary_link" priority="6" numLanes="1" speed="22.22" disallow="tram rail_urban rail rail_electric rail_fast ship" oneway="0"/>
    <type id="highway.service" priority="1" numLanes="1" speed="5.56" allow="pedestrian delivery bicycle" oneway="0"/>
    <type id="highway.stairs" priority="1" numLanes="1" speed="1.39" allow="pedestrian" oneway="1" width="2.00"/>
    <type id="highway.step" priority="1" numLanes="1" speed="1.39" allow="pedestrian" oneway="1" width="2.00"/>
    <type id="highway.steps" priority="1" numLanes="1" speed="1.39" allow="pedestrian" oneway="1" width="2.00"/>
    <type id="highway.tertiary" priority="10" numLanes="1" speed="22.22" disallow="tram rail_urban rail rail_electric rail_fast ship" oneway="0"/>
    <type id="highway.tertiary_link" priority="5" numLanes="1" speed="22.22" disallow="tram rail_urban rail rail_electric rail_fast ship" oneway="0"/>
    <type id="highway.track" priority="1" numLanes="1" speed="5.56" allow="pedestrian motorcycle moped bicycle" oneway="0"/>
    <type id="highway.trunk" priority="13" numLanes="2" speed="27.78" disallow="pedestrian bicycle tram rail_urban rail rail_electric rail_fast ship" oneway="0"/>
    <type id="highway.trunk_link" priority="8" numLanes="1" speed="22.22" disallow="pedestrian bicycle tram rail_urban rail rail_electric rail_fast ship" oneway="0"/>
    <type id="highway.unclassified" priority="4" numLanes="1" speed="13.89" disallow="tram rail_urban rail rail_electric rail_fast ship" oneway="0"/>
    <type id="highway.unsurfaced" priority="1" numLanes="1" speed="8.33" disallow="tram rail_urban rail rail_electric rail_fast ship" oneway="0"/>
    <type id="railway.highspeed" priority="21" numLanes="1" speed="69.44" allow="rail_fast" oneway="1"/>
    <type id="railway.light_rail" priority="19" numLanes="1" speed="27.78" allow="rail_urban" oneway="1"/>
    <type id="railway.preserved" priority="16" numLanes="1" speed="27.78" allow="rail" oneway="1"/>
    <type id="railway.rail" priority="20" numLanes="1" speed="44.44" allow="rail" oneway="1"/>
    <type id="railway.subway" priority="18" numLanes="1" speed="27.78" allow="rail_urban" oneway="1"/>
    <type id="railway.tram" priority="17" numLanes="1" speed="13.89" allow="tram" oneway="1"/>

    <edge id=":1365831801_0" function="internal">
        <lane id=":1365831801_0_0" index="0" disallow="tram rail_urban rail rail_electric rail_fast ship" speed="3.65" length="4.67" shape="2257.56,190.87 2258.76,190.08 2259.66,190.03 2260.24,190.71 2260.50,192.13"/>
    </edge>
    <edge id=":1366439596_0" function="internal">
        <lane id=":1366439596_0_0" index="0" disallow="tram rail_urban rail rail_electric rail_fast ship" speed="6.39" length="9.04" shape="1072.69,1244.73 1072.83,1247.22 1073.75,1249.02 1075.43,1250.14 1077.89,1250.57"/>
    </edge>
    <edge id=":1366439596_1" function="internal">
        <lane id=":1366439596_1_0" index="0" disallow="tram rail_urban rail rail_electric rail_fast ship" speed="13.89" length="11.20" shape="1072.69,1244.73 1071.70,1255.88"/>
    </edge>
    <edge id=":1366439596_2" function="internal">
        <lane id=":1366439596_2_0" index="0" disallow="tram rail_urban rail rail_electric rail_fast ship" speed="3.65" length="2.34" shape="1072.69,1244.73 1071.79,1245.85 1070.96,1246.18"/>
    </edge>
    <edge id=":1366439596_6" function="internal">
        <lane id=":1366439596_6_0" index="0" disallow="tram rail_urban rail rail_electric rail_fast ship" speed="3.65" length="2.34" shape="1070.96,1246.18 1070.20,1245.72 1069.51,1244.45"/>
    </edge>
    <edge id=":1366439596_3" function="internal">
        <lane id=":1366439596_3_0" index="0" disallow="tram rail_urban rail rail_electric rail_fast ship" speed="13.89" length="11.18" shape="1068.51,1255.59 1069.51,1244.45"/>
    </edge>
    <edge id=":1366439596_4" function="internal">
        <lane id=":1366439596_4_0" index="0" disallow="tram rail_urban rail rail_electric rail_fast ship" speed="7.51" length="3.93" shape="1068.51,1255.59 1069.28,1253.29 1070.41,1252.30"/>
    </edge>
    <edge id=":1366439596_5" function="internal">
        <lane id=":1366439596_5_0" index="0" disallow="tram rail_urban rail rail_electric rail_fast ship" speed="3.65" length="2.34" shape="1068.51,1255.59 1069.42,1254.47 1070.25,1254.14"/>
    </edge>
    <edge id=":1366439596_7" function="internal">
        <lane id=":1366439596_7_0" index="0" disallow="tram rail_urban rail rail_electric rail_fast ship" speed="7.51" length="7.86" shape="1070.41,1252.30 1071.10,1251.69 1073.97,1250.78 1077.89,1250.57"/>
    </edge>
    <edge id=":1366439596_8" function="internal">
        <lane id=":1366439596_8_0" index="0" disallow="tram rail_urban rail rail_electric rail_fast ship" speed="3.65" length="2.34" shape="1070.25,1254.14 1071.01,1254.61 1071.70,1255.88"/>
    </edge>
    <edge id=":1366439605_0" function="internal">
        <lane id=":1366439605_0_0" index="0" disallow="tram rail_urban rail rail_electric rail_fast ship" speed="22.22" length="9.40" shape="1234.53,1260.01 1227.87,1266.65"/>
    </edge>
    <edge id=":1366439605_1" function="internal">
        <lane id=":1366439605_1_0" index="0" disallow="tram rail_urban rail rail_electric rail_fast ship" speed="6.01" length="7.95" shape="1234.53,1260.01 1232.39,1261.82 1230.54,1262.74 1228.99,1262.78 1227.72,1261.93"/>
    </edge>
    <edge id=":1366439605_2" function="internal">
        <lane id=":1366439605_2_0" index="0" disallow="tram rail_urban rail rail_electric rail_fast ship" speed="6.29" length="7.87" shape="1230.14,1259.83 1230.78,1261.17 1230.62,1262.75 1229.65,1264.57 1227.87,1266.65"/>
    </edge>
    <edge id=":1366439605_3" function="internal">
        <lane id=":1366439605_3_0" index="0" disallow="tram rail_urban rail rail_electric rail_fast ship" speed="3.65" length="4.67" shape="1230.14,1259.83 1230.32,1261.27 1229.98,1262.09 1229.11,1262.31 1227.72,1261.93"/>
    </edge>
    <edge id=":1366439606_0" function="internal">
        <lane id=":1366439606_0_0" index="0" disallow="tram rail_urban rail rail_electric rail_fast ship" speed="5.66" length="9.25" shape="1088.51,1129.35 1086.05,1128.04 1084.21,1128.07 1082.99,1129.45 1082.39,1132.17"/>
    </edge>
    <edge id=":1366439606_1" function="internal">
        <lane id=":1366439606_1_0" index="0" disallow="tram rail_urban rail rail_electric rail_fast ship" speed="13.89" length="15.90" shape="1088.51,1129.35 1085.24,1127.24 1081.64,1125.34 1077.89,1123.79 1074.16,1122.71"/>
    </edge>
    <edge id=":1366439606_2" function="internal">
        <lane id=":1366439606_2_0" index="0" disallow="tram rail_urban rail rail_electric rail_fast ship" speed="10.43" length="14.43" shape="1088.51,1129.35 1084.78,1126.35 1082.17,1123.48 1080.67,1120.74 1080.30,1118.13"/>
    </edge>
    <edge id=":1366439606_3" function="internal">
        <lane id=":1366439606_3_0" index="0" disallow="tram rail_urban rail rail_electric rail_fast ship" speed="13.89" length="13.86" shape="1083.49,1118.36 1082.39,1132.17"/>
    </edge>
    <edge id=":1366439606_4" function="internal">
        <lane id=":1366439606_4_0" index="0" disallow="tram rail_urban rail rail_electric rail_fast ship" speed="7.06" length="4.27" shape="1083.49,1118.36 1082.73,1120.99 1081.59,1122.01"/>
    </edge>
    <edge id=":1366439606_5" function="internal">
        <lane id=":1366439606_5_0" index="0" disallow="tram rail_urban rail rail_electric rail_fast ship" speed="3.65" length="2.34" shape="1083.49,1118.36 1082.60,1119.50 1081.78,1119.84"/>
    </edge>
    <edge id=":1366439606_9" function="internal">
        <lane id=":1366439606_9_0" index="0" disallow="tram rail_urban rail rail_electric rail_fast ship" speed="7.06" length="7.73" shape="1081.59,1122.01 1080.93,1122.59 1078.07,1123.17 1074.16,1122.71"/>
    </edge>
    <edge id=":1366439606_10" function="internal">
        <lane id=":1366439606_10_0" index="0" disallow="tram rail_urban rail rail_electric rail_fast ship" speed="3.65" length="2.34" shape="1081.78,1119.84 1081.01,1119.38 1080.30,1118.13"/>
    </edge>
    <edge id=":1366439606_6" function="internal">
        <lane id=":1366439606_6_0" index="0" disallow="tram rail_urban rail rail_electric rail_fast ship" speed="7.64" length="11.57" shape="1079.20,1131.90 1079.14,1128.35 1078.28,1125.63 1076.62,1123.76 1074.16,1122.71"/>
    </edge>
    <edge id=":1366439606_7" function="internal">
        <lane id=":1366439606_7_0" index="0" disallow="tram rail_urban rail rail_electric rail_fast ship" speed="13.89" length="13.81" shape="1079.20,1131.90 1080.30,1118.13"/>
    </edge>
    <edge id=":1366439606_8" function="internal">
        <lane id=":1366439606_8_0" index="0" disallow="tram rail_urban rail rail_electric rail_fast ship" speed="3.65" length="2.34" shape="1079.20,1131.90 1080.10,1130.77 1080.93,1130.44"/>
    </edge>
    <edge id=":1366439606_11" function="internal">
        <lane id=":1366439606_11_0" index="0" disallow="tram rail_urban rail rail_electric rail_fast ship" speed="3.65" length="2.34" shape="1080.93,1130.44 1081.69,1130.91 1082.39,1132.17"/>
    </edge>
    <edge id=":1366439615_0" function="internal">
        <lane id=":1366439615_0_0" index="0" disallow="tram rail_urban rail rail_electric rail_fast ship" speed="13.89" length="9.28" shape="989.54,1105.93 986.83,1105.47 984.96,1105.20 983.09,1105.02 980.34,1104.81"/>
    </edge>
    <edge id=":1366439615_1" function="internal">
        <lane id=":1366439615_1_0" index="0" disallow="tram rail_urban rail rail_electric rail_fast ship" speed="6.44" length="7.80" shape="989.54,1105.93 986.91,1105.28 985.04,1104.39 983.93,1103.25 983.59,1101.86"/>
    </edge>
    <edge id=":1366439615_2" function="internal">
        <lane id=":1366439615_2_0" index="0" disallow="tram rail_urban rail rail_electric rail_fast ship" speed="6.03" length="1.38" shape="986.79,1101.93 986.39,1103.26"/>
    </edge>
    <edge id=":1366439615_3" function="internal">
        <lane id=":1366439615_3_0" index="0" disallow="tram rail_urban rail rail_electric rail_fast ship" speed="3.65" length="1.44" shape="986.79,1101.93 985.96,1103.11"/>
    </edge>
    <edge id=":1366439615_4" function="internal">
        <lane id=":1366439615_4_0" index="0" disallow="tram rail_urban rail rail_electric rail_fast ship" speed="6.03" length="6.51" shape="986.39,1103.26 986.36,1103.36 985.14,1104.32 983.13,1104.81 980.34,1104.81"/>
    </edge>
    <edge id=":1366439615_5" function="internal">
        <lane id=":1366439615_5_0" index="0" disallow="tram rail_urban rail rail_electric rail_fast ship" speed="3.65" length="3.23" shape="985.96,1103.11 985.15,1103.50 984.36,1103.08 983.59,1101.86"/>
    </edge>
    <edge id=":1428980356_0" function="internal">
        <lane id=":1428980356_0_0" index="0" disallow="tram rail_urban rail rail_electric rail_fast ship" speed="13.89" length="0.30" shape="2029.52,418.33 2029.28,418.16"/>
    </edge>
    <edge id=":1428980356_1" function="internal">
        <lane id=":1428980356_1_0" index="0" disallow="tram rail_urban rail rail_electric rail_fast ship" speed="13.89" length="0.30" shape="2031.16,415.56 2031.40,415.74"/>
    </edge>
    <edge id=":1428980361_0" function="internal">
        <lane id=":1428980361_0_0" index="0" disallow="tram rail_urban rail rail_electric rail_fast ship" speed="13.89" length="13.42" shape="1980.61,420.75 1977.40,422.13 1974.55,423.60 1971.81,425.27 1968.91,427.24"/>
    </edge>
    <edge id=":1428980361_1" function="internal">
        <lane id=":1428980361_1_0" index="0" disallow="tram rail_urban rail rail_electric rail_fast ship" speed="8.62" length="5.80" shape="1980.61,420.75 1977.40,421.63 1974.93,421.63"/>
    </edge>
    <edge id=":1428980361_2" function="internal">
        <lane id=":1428980361_2_0" index="0" disallow="tram rail_urban rail rail_electric rail_fast ship" speed="3.65" length="2.34" shape="1980.61,420.75 1979.21,420.45 1978.54,419.85"/>
    </edge>
    <edge id=":1428980361_9" function="internal">
        <lane id=":1428980361_9_0" index="0" disallow="tram rail_urban rail rail_electric rail_fast ship" speed="8.62" length="5.98" shape="1974.93,421.63 1974.52,421.63 1971.96,420.74 1969.72,418.98"/>
    </edge>
    <edge id=":1428980361_10" function="internal">
        <lane id=":1428980361_10_0" index="0" disallow="tram rail_urban rail rail_electric rail_fast ship" speed="3.65" length="2.34" shape="1978.54,419.85 1978.62,418.96 1979.45,417.77"/>
    </edge>
    <edge id=":1428980361_3" function="internal">
        <lane id=":1428980361_3_0" index="0" disallow="tram rail_urban rail rail_electric rail_fast ship" speed="7.19" length="7.96" shape="1972.04,416.78 1973.51,417.91 1975.23,418.45 1977.21,418.40 1979.45,417.77"/>
    </edge>
    <edge id=":1428980361_4" function="internal">
        <lane id=":1428980361_4_0" index="0" disallow="tram rail_urban rail rail_electric rail_fast ship" speed="7.26" length="12.75" shape="1972.04,416.78 1973.60,419.30 1973.60,421.88 1972.04,424.53 1968.91,427.24"/>
    </edge>
    <edge id=":1428980361_5" function="internal">
        <lane id=":1428980361_5_0" index="0" disallow="tram rail_urban rail rail_electric rail_fast ship" speed="3.65" length="4.67" shape="1972.04,416.78 1972.28,418.21 1971.98,419.05 1971.12,419.30 1969.72,418.98"/>
    </edge>
    <edge id=":1428980361_6" function="internal">
        <lane id=":1428980361_6_0" index="0" disallow="tram rail_urban rail rail_electric rail_fast ship" speed="5.59" length="7.10" shape="1967.07,424.62 1969.03,423.00 1970.13,421.53 1970.36,420.19 1969.72,418.98"/>
    </edge>
    <edge id=":1428980361_7" function="internal">
        <lane id=":1428980361_7_0" index="0" disallow="tram rail_urban rail rail_electric rail_fast ship" speed="13.89" length="14.18" shape="1967.07,424.62 1970.08,422.59 1973.05,420.80 1976.13,419.21 1979.45,417.77"/>
    </edge>
    <edge id=":1428980361_8" function="internal">
        <lane id=":1428980361_8_0" index="0" disallow="tram rail_urban rail rail_electric rail_fast ship" speed="3.65" length="2.34" shape="1967.07,424.62 1968.51,424.58 1969.30,425.01"/>
    </edge>
    <edge id=":1428980361_11" function="internal">
        <lane id=":1428980361_11_0" index="0" disallow="tram rail_urban rail rail_electric rail_fast ship" speed="3.65" length="2.34" shape="1969.30,425.01 1969.43,425.89 1968.91,427.24"/>
    </edge>
    <edge id=":1758483108_0" function="internal">
        <lane id=":1758483108_0_0" index="0" disallow="tram rail_urban rail rail_electric rail_fast ship" speed="22.22" length="20.31" shape="2197.98,1183.31 2199.18,1178.90 2200.31,1173.44 2201.31,1167.95 2202.13,1163.44"/>
    </edge>
    <edge id=":1758483108_1" function="internal">
        <lane id=":1758483108_1_0" index="0" disallow="tram rail_urban rail rail_electric rail_fast ship" speed="22.22" length="20.23" shape="2197.98,1183.31 2199.36,1178.90 2201.07,1173.54 2203.14,1168.42 2205.61,1164.71"/>
    </edge>
    <edge id=":1758483108_2" function="internal">
        <lane id=":1758483108_2_0" index="0" disallow="tram rail_urban rail rail_electric rail_fast ship" speed="17.36" length="20.11" shape="2202.13,1183.35 2201.10,1179.02 2200.97,1173.54 2201.43,1167.99 2202.13,1163.44"/>
    </edge>
    <edge id=":1758483108_3" function="internal">
        <lane id=":1758483108_3_0" index="0" disallow="tram rail_urban rail rail_electric rail_fast ship" speed="10.92" length="20.38" shape="2202.13,1183.35 2200.51,1178.26 2200.55,1173.46 2202.25,1168.94 2205.61,1164.71"/>
    </edge>
    <edge id=":1774642664_0" function="internal">
        <lane id=":1774642664_0_0" index="0" disallow="tram rail_urban rail rail_electric rail_fast ship" speed="3.65" length="4.67" shape="2514.97,1395.34 2513.62,1394.83 2513.05,1394.14 2513.26,1393.27 2514.25,1392.22"/>
    </edge>
    <edge id=":1892222395_0" function="internal">
        <lane id=":1892222395_0_0" index="0" disallow="tram rail_urban rail rail_electric rail_fast ship" speed="22.22" length="9.05" shape="2169.04,1094.90 2160.16,1093.18"/>
    </edge>
    <edge id=":1892222395_1" function="internal">
        <lane id=":1892222395_1_0" index="0" disallow="tram rail_urban rail rail_electric rail_fast ship" speed="7.03" length="3.76" shape="2166.62,1089.54 2165.25,1091.41 2164.12,1092.32"/>
    </edge>
    <edge id=":1892222395_2" function="internal">
        <lane id=":1892222395_2_0" index="0" disallow="tram rail_urban rail rail_electric rail_fast ship" speed="7.03" length="4.18" shape="2164.12,1092.32 2163.72,1092.64 2162.02,1093.23 2160.16,1093.18"/>
    </edge>
    <edge id=":2088921836_0" function="internal">
        <lane id=":2088921836_0_0" index="0" disallow="tram rail_urban rail rail_electric rail_fast ship" speed="22.22" length="9.37" shape="1240.39,1098.75 1234.93,1106.37"/>
    </edge>
    <edge id=":2088921836_1" function="internal">
        <lane id=":2088921836_1_0" index="0" disallow="tram rail_urban rail rail_electric rail_fast ship" speed="6.00" length="8.00" shape="1240.39,1098.75 1238.54,1100.87 1236.84,1102.05 1235.30,1102.30 1233.91,1101.60"/>
    </edge>
    <edge id=":2088921836_2" function="internal">
        <lane id=":2088921836_2_0" index="0" disallow="tram rail_urban rail rail_electric rail_fast ship" speed="6.40" length="7.89" shape="1236.02,1099.21 1236.85,1100.44 1236.94,1102.05 1236.30,1104.03 1234.93,1106.37"/>
    </edge>
    <edge id=":2088921836_3" function="internal">
        <lane id=":2088921836_3_0" index="0" disallow="tram rail_urban rail rail_electric rail_fast ship" speed="3.65" length="4.67" shape="1236.02,1099.21 1236.39,1100.60 1236.16,1101.46 1235.33,1101.80 1233.91,1101.60"/>
    </edge>
    <edge id=":2088921837_0" function="internal">
        <lane id=":2088921837_0_0" index="0" disallow="tram rail_urban rail rail_electric rail_fast ship" speed="13.89" length="14.40" shape="1211.11,1081.46 1200.32,1071.93"/>
    </edge>
    <edge id=":2088921837_1" function="internal">
        <lane id=":2088921837_1_0" index="0" disallow="tram rail_urban rail rail_electric rail_fast ship" speed="8.06" length="5.89" shape="1211.11,1081.46 1208.62,1078.52 1208.01,1076.58"/>
    </edge>
    <edge id=":2088921837_2" function="internal">
        <lane id=":2088921837_2_0" index="0" disallow="tram rail_urban rail rail_electric rail_fast ship" speed="3.65" length="2.34" shape="1211.11,1081.46 1210.75,1080.07 1210.98,1079.21"/>
    </edge>
    <edge id=":2088921837_9" function="internal">
        <lane id=":2088921837_9_0" index="0" disallow="tram rail_urban rail rail_electric rail_fast ship" speed="8.06" length="8.33" shape="1208.01,1076.58 1207.65,1075.46 1208.21,1072.27 1210.31,1068.97"/>
    </edge>
    <edge id=":2088921837_10" function="internal">
        <lane id=":2088921837_10_0" index="0" disallow="tram rail_urban rail rail_electric rail_fast ship" speed="3.65" length="2.34" shape="1210.98,1079.21 1211.80,1078.87 1213.23,1079.07"/>
    </edge>
    <edge id=":2088921837_3" function="internal">
        <lane id=":2088921837_3_0" index="0" disallow="tram rail_urban rail rail_electric rail_fast ship" speed="6.58" length="9.13" shape="1212.75,1071.04 1211.39,1073.17 1211.03,1075.22 1211.64,1077.18 1213.23,1079.07"/>
    </edge>
    <edge id=":2088921837_4" function="internal">
        <lane id=":2088921837_4_0" index="0" disallow="tram rail_urban rail rail_electric rail_fast ship" speed="7.97" length="14.26" shape="1212.75,1071.04 1209.81,1073.64 1206.76,1074.65 1203.60,1074.08 1200.32,1071.93"/>
    </edge>
    <edge id=":2088921837_5" function="internal">
        <lane id=":2088921837_5_0" index="0" disallow="tram rail_urban rail rail_electric rail_fast ship" speed="3.65" length="4.67" shape="1212.75,1071.04 1211.36,1071.44 1210.49,1071.22 1210.14,1070.40 1210.31,1068.97"/>
    </edge>
    <edge id=":2088921837_6" function="internal">
        <lane id=":2088921837_6_0" index="0" disallow="tram rail_urban rail rail_electric rail_fast ship" speed="6.47" length="9.03" shape="1202.44,1069.53 1204.52,1070.89 1206.52,1071.25 1208.45,1070.61 1210.31,1068.97"/>
    </edge>
    <edge id=":2088921837_7" function="internal">
        <lane id=":2088921837_7_0" index="0" disallow="tram rail_urban rail rail_electric rail_fast ship" speed="13.89" length="14.40" shape="1202.44,1069.53 1213.23,1079.07"/>
    </edge>
    <edge id=":2088921837_8" function="internal">
        <lane id=":2088921837_8_0" index="0" disallow="tram rail_urban rail rail_electric rail_fast ship" speed="3.65" length="2.34" shape="1202.44,1069.53 1202.81,1070.93 1202.58,1071.79"/>
    </edge>
    <edge id=":2088921837_11" function="internal">
        <lane id=":2088921837_11_0" index="0" disallow="tram rail_urban rail rail_electric rail_fast ship" speed="3.65" length="2.34" shape="1202.58,1071.79 1201.75,1072.13 1200.32,1071.93"/>
    </edge>
    <edge id=":2088921839_0" function="internal">
        <lane id=":2088921839_0_0" index="0" disallow="tram rail_urban rail rail_electric rail_fast ship" speed="6.02" length="1.30" shape="1221.28,1003.77 1220.51,1002.72"/>
    </edge>
    <edge id=":2088921839_1" function="internal">
        <lane id=":2088921839_1_0" index="0" disallow="tram rail_urban rail rail_electric rail_fast ship" speed="3.65" length="1.34" shape="1221.28,1003.77 1220.87,1002.49"/>
    </edge>
    <edge id=":2088921839_4" function="internal">
        <lane id=":2088921839_4_0" index="0" disallow="tram rail_urban rail rail_electric rail_fast ship" speed="6.02" length="6.63" shape="1220.51,1002.72 1220.38,1002.55 1220.35,1000.99 1221.19,999.11 1222.90,996.89"/>
    </edge>
    <edge id=":2088921839_5" function="internal">
        <lane id=":2088921839_5_0" index="0" disallow="tram rail_urban rail rail_electric rail_fast ship" speed="3.65" length="3.33" shape="1220.87,1002.49 1220.84,1002.40 1221.02,1001.52 1221.83,1001.14 1223.27,1001.26"/>
    </edge>
    <edge id=":2088921839_2" function="internal">
        <lane id=":2088921839_2_0" index="0" disallow="tram rail_urban rail rail_electric rail_fast ship" speed="13.89" length="9.44" shape="1216.65,1003.97 1222.90,996.89"/>
    </edge>
    <edge id=":2088921839_3" function="internal">
        <lane id=":2088921839_3_0" index="0" disallow="tram rail_urban rail rail_electric rail_fast ship" speed="6.21" length="7.87" shape="1216.65,1003.97 1218.59,1002.03 1220.34,1000.93 1221.90,1000.68 1223.27,1001.26"/>
    </edge>
    <edge id=":2088921840_0" function="internal">
        <lane id=":2088921840_0_0" index="0" disallow="tram rail_urban rail rail_electric rail_fast ship" speed="6.66" length="9.22" shape="1254.72,1030.19 1252.58,1028.97 1250.52,1028.73 1248.53,1029.46 1246.63,1031.17"/>
    </edge>
    <edge id=":2088921840_1" function="internal">
        <lane id=":2088921840_1_0" index="0" disallow="tram rail_urban rail rail_electric rail_fast ship" speed="13.89" length="14.40" shape="1254.72,1030.19 1243.41,1021.28"/>
    </edge>
    <edge id=":2088921840_2" function="internal">
        <lane id=":2088921840_2_0" index="0" disallow="tram rail_urban rail rail_electric rail_fast ship" speed="3.65" length="2.34" shape="1254.72,1030.19 1254.27,1028.82 1254.45,1027.94"/>
    </edge>
    <edge id=":2088921840_9" function="internal">
        <lane id=":2088921840_9_0" index="0" disallow="tram rail_urban rail rail_electric rail_fast ship" speed="3.65" length="2.34" shape="1254.45,1027.94 1255.26,1027.56 1256.70,1027.67"/>
    </edge>
    <edge id=":2088921840_3" function="internal">
        <lane id=":2088921840_3_0" index="0" disallow="tram rail_urban rail rail_electric rail_fast ship" speed="13.89" length="14.38" shape="1245.40,1018.77 1256.70,1027.67"/>
    </edge>
    <edge id=":2088921840_4" function="internal">
        <lane id=":2088921840_4_0" index="0" disallow="tram rail_urban rail rail_electric rail_fast ship" speed="7.94" length="5.91" shape="1245.40,1018.77 1248.11,1021.63 1248.79,1023.48"/>
    </edge>
    <edge id=":2088921840_5" function="internal">
        <lane id=":2088921840_5_0" index="0" disallow="tram rail_urban rail rail_electric rail_fast ship" speed="3.65" length="2.34" shape="1245.40,1018.77 1245.84,1020.14 1245.66,1021.02"/>
    </edge>
    <edge id=":2088921840_10" function="internal">
        <lane id=":2088921840_10_0" index="0" disallow="tram rail_urban rail rail_electric rail_fast ship" speed="7.94" length="8.42" shape="1248.79,1023.48 1249.22,1024.66 1248.73,1027.84 1246.63,1031.17"/>
    </edge>
    <edge id=":2088921840_11" function="internal">
        <lane id=":2088921840_11_0" index="0" disallow="tram rail_urban rail rail_electric rail_fast ship" speed="3.65" length="2.34" shape="1245.66,1021.02 1244.85,1021.40 1243.41,1021.28"/>
    </edge>
    <edge id=":2088921840_6" function="internal">
        <lane id=":2088921840_6_0" index="0" disallow="tram rail_urban rail rail_electric rail_fast ship" speed="6.43" length="9.03" shape="1244.19,1029.10 1245.51,1027.00 1245.82,1024.99 1245.13,1023.09 1243.41,1021.28"/>
    </edge>
    <edge id=":2088921840_7" function="internal">
        <lane id=":2088921840_7_0" index="0" disallow="tram rail_urban rail rail_electric rail_fast ship" speed="8.13" length="14.24" shape="1244.19,1029.10 1247.12,1026.48 1250.18,1025.37 1253.37,1025.77 1256.70,1027.67"/>
    </edge>
    <edge id=":2088921840_8" function="internal">
        <lane id=":2088921840_8_0" index="0" disallow="tram rail_urban rail rail_electric rail_fast ship" speed="3.65" length="4.67" shape="1244.19,1029.10 1245.57,1028.71 1246.44,1028.92 1246.79,1029.74 1246.63,1031.17"/>
    </edge>
    <edge id=":2088921841_0" function="internal">
        <lane id=":2088921841_0_0" index="0" disallow="tram rail_urban rail rail_electric rail_fast ship" speed="6.09" length="1.09" shape="1178.59,1052.74 1178.01,1051.82"/>
    </edge>
    <edge id=":2088921841_1" function="internal">
        <lane id=":2088921841_1_0" index="0" disallow="tram rail_urban rail rail_electric rail_fast ship" speed="3.65" length="1.13" shape="1178.59,1052.74 1178.30,1051.65"/>
    </edge>
    <edge id=":2088921841_4" function="internal">