<?xml version="1.0" encoding="UTF-8"?>

<!-- generated on 2021-12-20 18:55:42 by Eclipse SUMO polyconvert Version 1.11.0
<configuration xmlns:xsi="http://www.w3.org/2001/XMLSchema-instance" xsi:noNamespaceSchemaLocation="http://sumo.dlr.de/xsd/polyconvertConfiguration.xsd">

    <input>
        <net-file value="osm.net.xml"/>
        <osm-files value="osm_bbox.osm.xml"/>
        <osm.keep-full-type value="true"/>
        <type-file value="/usr/share/sumo/data/typemap/osmPolyconvert.typ.xml"/>
    </input>

    <output>
        <output-file value="osm.poly.xml"/>
    </output>

    <processing>
        <poi-layer-offset value="5"/>
    </processing>

    <report>
        <verbose value="true"/>
    </report>

</configuration>
-->

<additional xmlns:xsi="http://www.w3.org/2001/XMLSchema-instance" xsi:noNamespaceSchemaLocation="http://sumo.dlr.de/xsd/additional_file.xsd">
    <location netOffset="-666082.07,-4545187.01" convBoundary="-0.00,-1068.19,3819.68,2847.44" origBoundary="28.976478,41.031156,29.022147,41.065828" projParameter="+proj=utm +zone=35 +ellps=WGS84 +datum=WGS84 +units=m +no_defs"/>

    <poly id="166701656" type="leisure.park" color="207,245,201" fill="1" layer="-2.00" shape="1078.479980,1005.710814 1074.633925,1010.643801 1115.864447,1051.483314 1143.175564,1022.404263 1154.990515,1033.070708 1163.780166,1023.385369 1157.862082,1016.674533 1257.766167,912.531349 1263.918362,912.671813 1277.304436,925.240430 1287.884606,911.175220 1285.409437,900.255303 1279.190648,872.832628 1242.869830,884.710658 1189.807048,902.471537 1167.599185,908.351708 1153.242535,912.145098 1136.376097,949.282276 1140.610912,971.172311 1078.479980,1005.710814"/>
    <poly id="166701781" type="leisure.park" color="207,245,201" fill="1" layer="-2.00" shape="1242.562320,872.396236 1287.563260,861.171824 1287.691283,855.565326 1289.964905,851.007521 1292.597750,845.080557 1270.758877,773.281155 1250.107721,779.096672 1250.476380,782.470740 1235.017817,787.738377 1236.474749,793.170006 1219.652916,798.850864 1242.562320,872.396236"/>
    <poly id="178215800" type="building.block" color="255,230,230" fill="1" layer="-1.00" shape="1092.145405,513.449393 1135.911681,486.756029 1122.484865,467.077848 1110.088314,447.945259 1066.089313,475.988620 1092.145405,513.449393"/>
    <poly id="178863572" type="leisure.park" color="207,245,201" fill="1" layer="-2.00" shape="2207.413862,1208.615973 2214.777849,1208.340761 2221.328310,1211.634708 2226.121903,1218.931571 2226.792198,1229.288371 2214.998155,1291.021531 2201.032108,1290.256509 2190.309027,1291.809759 2185.063380,1297.976356 2169.196402,1327.270008 2163.600905,1345.747188 2144.302865,1330.741789 2117.835323,1304.975012 2148.782456,1273.328206 2166.797189,1254.869533 2176.466212,1240.262545 2189.687860,1220.349831 2196.597872,1214.210343 2207.413862,1208.615973"/>
    <poly id="225312799" type="building.yes" color="255,230,230" fill="1" layer="-1.00" shape="1442.516689,573.477027 1466.590261,586.467948 1470.426679,579.402232 1468.873210,578.566964 1472.358460,572.148580 1470.314930,571.046631 1472.325456,567.338159 1455.337605,558.174731 1456.575495,555.892607 1453.094630,554.024699 1442.516689,573.477027"/>
    <poly id="225312800" type="building.yes" color="255,230,230" fill="1" layer="-1.00" shape="1442.657436,589.764239 1440.874272,589.412469 1436.305825,613.056482 1438.566545,613.485812 1438.261811,615.045044 1469.625582,621.071403 1470.570095,616.172247 1469.063034,615.882320 1470.063813,610.728972 1469.134412,610.552220 1470.497976,603.507734 1469.057899,603.230446 1470.068353,598.021781 1468.444126,597.706960 1469.359365,592.984860 1443.010540,587.928418 1442.657436,589.764239"/>
    <poly id="225312801" type="building.yes" color="255,230,230" fill="1" layer="-1.00" shape="1202.153974,595.801568 1197.191821,596.565840 1190.206120,595.351189 1185.758892,593.450250 1178.986289,589.530181 1172.585389,584.430071 1168.432626,578.836981 1166.850827,573.713540 1132.262483,573.735310 1132.096331,576.963874 1130.663679,577.097810 1131.117253,582.650923 1132.925343,582.647737 1134.560727,594.270425 1139.383195,602.577956 1145.092087,609.628321 1143.588130,611.782238 1150.730553,619.765040 1160.064652,626.042830 1171.914512,631.522739 1173.199393,629.019489 1182.766071,631.737028 1193.697461,632.875099 1203.163887,632.246943 1204.116356,633.623826 1212.636946,631.696704 1202.153974,595.801568"/>
    <poly id="225312802" type="building.yes" color="255,230,230" fill="1" layer="-1.00" shape="1013.684385,914.460481 1026.507959,910.409714 1027.442046,913.330132 1069.496114,900.026724 1068.484072,896.837935 1081.299307,892.787070 1073.074576,867.007240 1081.239990,864.416524 1057.100047,788.710995 1058.463848,788.275569 1052.562167,769.768783 1050.952852,770.276367 1026.765333,694.414390 1018.930331,696.890522 1010.846783,671.536106 998.590242,675.411014 997.601322,672.311629 956.164495,685.418524 956.917982,687.779428 943.509583,692.016946 952.417399,719.955949 946.140835,721.945606 969.238478,794.372367 967.301103,796.360929 968.894168,801.362395 971.154089,801.824888 972.134847,804.912977 970.575127,806.565805 972.286414,811.914307 974.769410,812.181946 999.019912,888.234026 1006.126338,885.985645 1006.816849,888.156289 1005.436261,888.591341 1013.684385,914.460481"/>
    <poly id="225312803" type="building.yes" color="255,230,230" fill="1" layer="-1.00" shape="1137.183467,910.945616 1128.292585,882.306929 1118.985704,885.171462 1127.868212,913.809946 1137.183467,910.945616"/>
    <poly id="225312804" type="building.yes" color="255,230,230" fill="1" layer="-1.00" shape="1321.295493,1040.688414 1305.887167,1029.417554 1302.588449,1033.574278 1318.119795,1044.981234 1321.295493,1040.688414"/>
    <poly id="225312805" type="building.yes" color="255,230,230" fill="1" layer="-1.00" shape="1203.304715,979.789696 1217.274471,992.204912 1235.283116,972.088854 1221.321752,959.673797 1203.304715,979.789696"/>
    <poly id="225312806" type="building.yes" color="255,230,230" fill="1" layer="-1.00" shape="1227.732264,954.021877 1240.549512,965.722146 1253.820252,951.296221 1240.994593,939.595738 1227.732264,954.021877"/>
    <poly id="225312808" type="building.yes" color="255,230,230" fill="1" layer="-1.00" shape="1284.410917,1024.628393 1289.315713,1018.631125 1274.459340,1006.384350 1269.450652,1012.512548 1284.410917,1024.628393"/>
    <poly id="225312811" type="building.yes" color="255,230,230" fill="1" layer="-1.00" shape="1305.699358,1065.991155 1287.184985,1052.283440 1283.064615,1058.176436 1301.173753,1071.586084 1305.699358,1065.991155"/>
    <poly id="225312815" type="building.yes" color="255,230,230" fill="1" layer="-1.00" shape="1198.539656,1037.141391 1212.400552,1049.531904 1219.328519,1041.836855 1205.537642,1029.325742 1198.539656,1037.141391"/>
    <poly id="225312817" type="building.yes" color="255,230,230" fill="1" layer="-1.00" shape="1262.430761,1056.638932 1270.559115,1046.827538 1252.193977,1031.734855 1244.065633,1041.546268 1262.430761,1056.638932"/>
    <poly id="225312819" type="building.yes" color="255,230,230" fill="1" layer="-1.00" shape="1251.031870,1139.720253 1233.242657,1125.929255 1223.244379,1140.674276 1236.605143,1155.808159 1251.031870,1139.720253"/>
    <poly id="225312821" type="building.yes" color="255,230,230" fill="1" layer="-1.00" shape="1314.440666,1049.962346 1299.081219,1038.392707 1294.157664,1045.211514 1309.039860,1057.059046 1314.440666,1049.962346"/>
    <poly id="225312823" type="building.yes" color="255,230,230" fill="1" layer="-1.00" shape="1208.523270,575.386473 1213.742013,594.699777 1226.289742,591.342818 1221.071282,572.018402 1208.523270,575.386473"/>
    <poly id="225312825" type="building.yes" color="255,230,230" fill="1" layer="-1.00" shape="1211.471731,1022.807639 1225.290613,1035.197217 1232.149088,1027.600562 1218.383670,1015.078900 1211.471731,1022.807639"/>
    <poly id="225312827" type="building.yes" color="255,230,230" fill="1" layer="-1.00" shape="1366.813867,822.005356 1362.401031,828.913548 1374.626740,835.957486 1378.260769,829.275878 1366.813867,822.005356"/>
    <poly id="225312829" type="building.yes" color="255,230,230" fill="1" layer="-1.00" shape="1173.696455,552.320697 1199.572973,552.289135 1199.549648,536.360085 1173.673074,536.391649 1173.696455,552.320697"/>
    <poly id="225312831" type="building.yes" color="255,230,230" fill="1" layer="-1.00" shape="1353.545093,927.248284 1356.621271,922.897664 1343.329361,913.574516 1340.253188,917.925141 1353.545093,927.248284"/>
    <poly id="225312833" type="building.yes" color="255,230,230" fill="1" layer="-1.00" shape="1160.223753,1079.742742 1181.786990,1101.717238 1199.904503,1081.237037 1178.341252,1059.262489 1160.223753,1079.742742"/>
    <poly id="225312834" type="building.yes" color="255,230,230" fill="1" layer="-1.00" shape="1432.888290,682.013194 1454.778574,680.502985 1453.916405,668.186972 1432.026086,669.697184 1432.888290,682.013194"/>
    <poly id="225312836" type="building.yes" color="255,230,230" fill="1" layer="-1.00" shape="1056.933434,972.284947 1063.585939,992.519468 1115.340814,975.649831 1108.696835,955.415452 1056.933434,972.284947"/>
    <poly id="225312838" type="building.yes" color="255,230,230" fill="1" layer="-1.00" shape="1365.078941,994.014019 1374.108285,1000.351804 1382.485743,988.480169 1373.447732,982.153284 1365.078941,994.014019"/>
    <poly id="225312839" type="building.yes" color="255,230,230" fill="1" layer="-1.00" shape="1359.409193,919.018094 1376.168783,894.708405 1362.636186,885.612988 1345.938753,909.779725 1359.409193,919.018094"/>
    <poly id="225312842" type="building.yes" color="255,230,230" fill="1" layer="-1.00" shape="1302.588449,1033.574278 1299.081219,1038.392707 1314.440666,1049.962346 1318.119795,1044.981234 1302.588449,1033.574278"/>
    <poly id="225312843" type="building.yes" color="255,230,230" fill="1" layer="-1.00" shape="1237.191974,992.715118 1251.673139,1005.930730 1258.761126,998.228261 1244.279956,985.012635 1237.191974,992.715118"/>
    <poly id="225312845" type="building.yes" color="255,230,230" fill="1" layer="-1.00" shape="1274.459340,1006.384350 1289.315713,1018.631125 1294.357018,1012.548116 1279.508791,1000.312625 1274.459340,1006.384350"/>
    <poly id="225312847" type="building.yes" color="255,230,230" fill="1" layer="-1.00" shape="1255.984135,1064.611518 1262.430761,1056.638932 1244.065633,1041.546268 1237.471831,1049.704342 1255.984135,1064.611518"/>
    <poly id="225312849" type="building.yes" color="255,230,230" fill="1" layer="-1.00" shape="1205.815154,1004.272964 1211.844753,997.623748 1195.999810,983.366287 1189.970215,990.015517 1205.815154,1004.272964"/>
    <poly id="225312851" type="building.yes" color="255,230,230" fill="1" layer="-1.00" shape="1368.065896,867.320346 1386.026827,879.871498 1395.388117,866.167352 1377.643659,853.709987 1368.065896,867.320346"/>
    <poly id="225312853" type="building.yes" color="255,230,230" fill="1" layer="-1.00" shape="1315.840543,1015.915676 1333.887065,1029.124032 1343.411900,1015.978956 1325.161622,1002.854786 1315.840543,1015.915676"/>
    <poly id="225312855" type="building.yes" color="255,230,230" fill="1" layer="-1.00" shape="1274.927629,1107.031428 1257.907019,1093.457864 1249.258321,1104.701398 1266.298731,1117.775546 1274.927629,1107.031428"/>
    <poly id="225312857" type="building.yes" color="255,230,230" fill="1" layer="-1.00" shape="1333.761660,927.118497 1347.045150,936.441436 1353.545093,927.248284 1340.253188,917.925141 1333.761660,927.118497"/>
    <poly id="225312858" type="building.yes" color="255,230,230" fill="1" layer="-1.00" shape="1297.357743,983.514288 1296.600489,965.491301 1278.341885,967.084861 1278.589118,985.718233 1297.357743,983.514288"/>
    <poly id="225312859" type="building.yes" color="255,230,230" fill="1" layer="-1.00" shape="1416.430185,809.387600 1396.530602,809.910365 1397.121697,823.419817 1416.799290,835.921403 1416.430185,809.387600"/>
    <poly id="225312860" type="building.yes" color="255,230,230" fill="1" layer="-1.00" shape="1214.259674,1078.232371 1232.615851,1093.346974 1239.593894,1084.931083 1221.237455,1069.827565 1214.259674,1078.232371"/>
    <poly id="225312861" type="building.yes" color="255,230,230" fill="1" layer="-1.00" shape="1351.571898,870.431385 1359.412818,858.491926 1345.733447,849.559809 1337.884137,861.499091 1351.571898,870.431385"/>
    <poly id="225312862" type="building.yes" color="255,230,230" fill="1" layer="-1.00" shape="1366.581046,977.586615 1358.797030,989.616226 1365.078941,994.014019 1373.447732,982.153284 1366.581046,977.586615"/>
    <poly id="225312864" type="building.yes" color="255,230,230" fill="1" layer="-1.00" shape="1350.119881,843.806213 1363.684890,852.591324 1371.588738,840.475588 1358.023461,831.701565 1350.119881,843.806213"/>
    <poly id="225312867" type="building.yes" color="255,230,230" fill="1" layer="-1.00" shape="1343.329361,913.574516 1356.621271,922.897664 1359.409193,919.018094 1345.938753,909.779725 1343.329361,913.574516"/>
    <poly id="225312869" type="building.yes" color="255,230,230" fill="1" layer="-1.00" shape="1434.095643,706.455674 1434.580538,720.562522 1435.007449,732.790832 1461.172384,731.889302 1460.260418,705.565241 1434.095643,706.455674"/>
    <poly id="225312871" type="building.yes" color="255,230,230" fill="1" layer="-1.00" shape="1230.261812,1058.703652 1248.618009,1073.818294 1255.984135,1064.611518 1237.471831,1049.704342 1230.261812,1058.703652"/>
    <poly id="225312873" type="building.yes" color="255,230,230" fill="1" layer="-1.00" shape="1180.188380,1000.800068 1196.033313,1015.057495 1205.815154,1004.272964 1189.970215,990.015517 1180.188380,1000.800068"/>
    <poly id="225312874" type="building.yes" color="255,230,230" fill="1" layer="-1.00" shape="1123.291052,1048.464813 1131.536761,1055.984053 1149.667835,1036.381554 1141.389515,1028.817119 1123.291052,1048.464813"/>
    <poly id="225312875" type="building.yes" color="255,230,230" fill="1" layer="-1.00" shape="1460.605388,655.521485 1460.428521,630.147283 1443.312740,630.267050 1434.153642,630.324317 1434.279082,649.121536 1434.322195,655.698323 1460.605388,655.521485"/>
    <poly id="225312876" type="building.yes" color="255,230,230" fill="1" layer="-1.00" shape="1110.161340,869.463744 1125.268755,864.832097 1097.830561,775.955134 1082.723241,780.575740 1110.161340,869.463744"/>
    <poly id="225312877" type="building.yes" color="255,230,230" fill="1" layer="-1.00" shape="1262.790048,1086.938019 1257.907019,1093.457864 1274.927629,1107.031428 1280.351768,1099.646437 1262.790048,1086.938019"/>
    <poly id="225312878" type="building.yes" color="255,230,230" fill="1" layer="-1.00" shape="1245.951018,932.810968 1259.139387,944.830759 1272.971204,929.773425 1259.791231,917.753802 1245.951018,932.810968"/>
    <poly id="225312879" type="building.yes" color="255,230,230" fill="1" layer="-1.00" shape="1258.145329,1026.672299 1273.201071,1038.657008 1284.410917,1024.628393 1269.450652,1012.512548 1258.145329,1026.672299"/>
    <poly id="225312880" type="building.yes" color="255,230,230" fill="1" layer="-1.00" shape="1138.496434,1062.374293 1147.318770,1070.417666 1166.591422,1049.430570 1157.760674,1041.386983 1138.496434,1062.374293"/>
    <poly id="225312881" type="building.yes" color="255,230,230" fill="1" layer="-1.00" shape="1362.666000,875.105717 1381.068781,887.455904 1386.026827,879.871498 1368.065896,867.320346 1362.666000,875.105717"/>
    <poly id="225312882" type="building.yes" color="255,230,230" fill="1" layer="-1.00" shape="1337.884137,861.499091 1330.069485,873.394740 1343.749080,882.315727 1351.571898,870.431385 1337.884137,861.499091"/>
    <poly id="225312883" type="building.yes" color="255,230,230" fill="1" layer="-1.00" shape="1358.997239,1027.598281 1366.179953,1032.316567 1377.231339,1015.663028 1370.048868,1010.933630 1358.997239,1027.598281"/>
    <poly id="225312884" type="building.yes" color="255,230,230" fill="1" layer="-1.00" shape="1343.441639,981.178982 1358.143355,990.623207 1358.797030,989.616226 1366.581046,977.586615 1369.117833,973.656881 1354.407690,964.212442 1343.441639,981.178982"/>
    <poly id="225312885" type="building.yes" color="255,230,230" fill="1" layer="-1.00" shape="1283.064615,1058.176436 1276.966176,1066.734560 1294.902106,1079.995837 1301.173753,1071.586084 1283.064615,1058.176436"/>
    <poly id="225312886" type="building.yes" color="255,230,230" fill="1" layer="-1.00" shape="1193.445740,1108.903461 1200.741231,1115.312539 1218.858768,1094.832384 1211.563270,1088.423289 1193.445740,1108.903461"/>
    <poly id="225312887" type="building.yes" color="255,230,230" fill="1" layer="-1.00" shape="1417.133958,792.941960 1403.096487,793.054392 1403.123016,796.309576 1403.174264,802.531100 1417.211716,802.418669 1417.133958,792.941960"/>
    <poly id="225312888" type="building.yes" color="255,230,230" fill="1" layer="-1.00" shape="1390.084390,834.411226 1409.761962,846.912794 1416.799290,835.921403 1397.121697,823.419817 1390.084390,834.411226"/>
    <poly id="225312889" type="building.yes" color="255,230,230" fill="1" layer="-1.00" shape="1239.593894,1084.931083 1248.618009,1073.818294 1230.261812,1058.703652 1221.237455,1069.827565 1239.593894,1084.931083"/>
    <poly id="225312891" type="building.yes" color="255,230,230" fill="1" layer="-1.00" shape="1251.673139,1005.930730 1237.191974,992.715118 1230.698872,999.775830 1245.180033,1012.991429 1251.673139,1005.930730"/>
    <poly id="225312892" type="building.yes" color="255,230,230" fill="1" layer="-1.00" shape="1165.972394,1016.493045 1180.897129,1030.540609 1192.175562,1018.657226 1177.251076,1004.598536 1165.972394,1016.493045"/>
    <poly id="225312893" type="building.apartments" color="255,230,230" fill="1" layer="-1.00" shape="1199.904503,1081.237037 1181.786990,1101.717238 1190.368755,1109.244221 1208.477871,1088.763849 1199.904503,1081.237037"/>
    <poly id="225312894" type="building.yes" color="255,230,230" fill="1" layer="-1.00" shape="1395.388117,866.167352 1403.984204,853.567617 1384.860270,840.390031 1376.302641,852.779619 1377.643659,853.709987 1395.388117,866.167352"/>
    <poly id="225312895" type="building.yes" color="255,230,230" fill="1" layer="-1.00" shape="1316.747820,966.251339 1324.072956,970.628491 1343.667107,940.018728 1335.903279,934.598514 1314.826900,935.116818 1316.747820,966.251339"/>
    <poly id="225312896" type="building.yes" color="255,230,230" fill="1" layer="-1.00" shape="1276.966176,1066.734560 1272.365832,1073.394144 1295.065087,1089.796613 1300.053644,1083.812374 1294.902106,1079.995837 1276.966176,1066.734560"/>
    <poly id="225312897" type="building.yes" color="255,230,230" fill="1" layer="-1.00" shape="1296.600489,965.491301 1295.710515,944.810527 1281.775648,944.125760 1268.730201,958.256872 1278.341885,967.084861 1296.600489,965.491301"/>
    <poly id="225312898" type="building.yes" color="255,230,230" fill="1" layer="-1.00" shape="1208.634497,1057.587931 1214.337846,1051.231181 1212.400552,1049.531904 1198.539656,1037.141391 1192.819503,1043.497770 1208.634497,1057.587931"/>
    <poly id="225312899" type="building.yes" color="255,230,230" fill="1" layer="-1.00" shape="1362.636186,885.612988 1376.168783,894.708405 1381.068781,887.455904 1362.666000,875.105717 1357.766267,882.347128 1362.636186,885.612988"/>
    <poly id="225312901" type="building.yes" color="255,230,230" fill="1" layer="-1.00" shape="1185.845998,1051.347311 1205.820812,1068.864735 1212.717924,1061.046791 1208.634497,1057.587931 1192.819503,1043.497770 1185.845998,1051.347311"/>
    <poly id="225312902" type="building.yes" color="255,230,230" fill="1" layer="-1.00" shape="1249.258321,1104.701398 1243.420455,1112.898940 1265.208711,1129.791479 1271.446959,1121.736390 1266.298731,1117.775546 1249.258321,1104.701398"/>
    <poly id="225312903" type="building.yes" color="255,230,230" fill="1" layer="-1.00" shape="1166.720798,1028.284348 1156.179438,1039.929108 1157.760674,1041.386983 1166.591422,1049.430570 1177.160534,1037.675380 1166.720798,1028.284348"/>
    <poly id="225312904" type="building.yes" color="255,230,230" fill="1" layer="-1.00" shape="1295.065087,1089.796613 1272.365832,1073.394144 1262.790048,1086.938019 1280.351768,1099.646437 1285.298766,1103.213923 1295.065087,1089.796613"/>
    <poly id="225312905" type="building.yes" color="255,230,230" fill="1" layer="-1.00" shape="1232.149088,1027.600562 1234.439160,1029.685563 1240.768754,1022.787739 1224.705109,1008.169769 1218.383670,1015.078900 1232.149088,1027.600562"/>
    <poly id="225312906" type="building.yes" color="255,230,230" fill="1" layer="-1.00" shape="1149.667835,1036.381554 1131.536761,1055.984053 1138.496434,1062.374293 1157.760674,1041.386983 1156.179438,1039.929108 1150.875116,1035.065062 1149.667835,1036.381554"/>
    <poly id="225312907" type="building.yes" color="255,230,230" fill="1" layer="-1.00" shape="1219.328519,1041.836855 1220.374601,1042.793786 1226.359881,1036.243540 1225.290613,1035.197217 1211.471731,1022.807639 1205.537642,1029.325742 1219.328519,1041.836855"/>
    <poly id="225312908" type="building.yes" color="255,230,230" fill="1" layer="-1.00" shape="1265.208711,1129.791479 1243.420455,1112.898940 1233.242657,1125.929255 1251.031870,1139.720253 1258.125957,1130.640564 1262.124983,1133.742079 1265.208711,1129.791479"/>
    <poly id="225312909" type="building.yes" color="255,230,230" fill="1" layer="-1.00" shape="1279.508791,1000.312625 1294.357018,1012.548116 1298.438732,1006.876398 1299.608689,1003.881804 1298.103387,990.262624 1279.053295,991.904751 1279.508791,1000.312625"/>
    <poly id="225312910" type="building.yes" color="255,230,230" fill="1" layer="-1.00" shape="1294.157664,1045.211514 1288.418922,1052.378265 1305.699358,1065.991155 1310.857821,1070.241061 1316.604725,1063.085621 1309.039860,1057.059046 1294.157664,1045.211514"/>
    <poly id="225312911" type="building.yes" color="255,230,230" fill="1" layer="-1.00" shape="1325.161622,1002.854786 1343.411900,1015.978956 1358.997239,1027.598281 1370.048868,1010.933630 1367.016012,1007.132126 1339.468625,989.452379 1337.456351,989.195366 1335.338476,989.880101 1325.161622,1002.854786"/>
    <poly id="225312912" type="building.yes" color="255,230,230" fill="1" layer="-1.00" shape="1305.887167,1029.417554 1321.295493,1040.688414 1355.907769,1066.027248 1365.861196,1052.525436 1333.887065,1029.124032 1315.840543,1015.915676 1305.887167,1029.417554"/>
    <poly id="225312913" type="building.yes" color="255,230,230" fill="1" layer="-1.00" shape="1327.228129,877.772950 1311.071750,904.395828 1311.025097,906.438592 1312.627051,906.253023 1313.829415,928.718177 1331.224551,927.749228 1330.522825,906.561789 1342.374369,888.382492 1327.228129,877.772950"/>
    <poly id="225312914" type="amenity.theatre" color="237,199,199" fill="1" layer="-1.00" shape="1172.600780,577.121521 1193.990845,592.749479 1204.200311,594.570876 1206.208380,592.806140 1202.564726,571.907055 1190.604358,563.158901 1170.084096,564.690064 1167.341591,567.315565 1172.600780,577.121521"/>
    <poly id="225312914#1" type="building.yes" color="255,230,230" fill="1" layer="-1.00" shape="1172.600780,577.121521 1193.990845,592.749479 1204.200311,594.570876 1206.208380,592.806140 1202.564726,571.907055 1190.604358,563.158901 1170.084096,564.690064 1167.341591,567.315565 1172.600780,577.121521"/>
    <poly id="225312915" type="building.yes" color="255,230,230" fill="1" layer="-1.00" shape="1248.994721,981.077047 1248.227706,981.892618 1263.704571,996.430595 1274.234253,985.307775 1274.595901,966.155135 1268.297962,960.246401 1266.936577,961.681542 1265.956711,960.770547 1247.801153,979.950129 1248.994721,981.077047"/>
    <poly id="225312926" type="building.yes" color="255,230,230" fill="1" layer="-1.00" shape="1027.634541,740.386937 1024.002705,742.559010 1020.922489,742.666511 1019.316198,741.196993 1017.983870,739.145011 1018.168196,735.117102 1012.967642,736.753569 1009.770604,749.732285 1005.984548,750.923369 1006.345609,752.053482 988.075986,757.801832 987.157657,754.926211 979.238180,757.422671 977.700402,752.577971 967.807424,755.695928 977.449941,786.073205 983.387234,784.209137 992.237448,812.080246 1001.452669,809.180138 1007.376361,827.831781 991.944266,832.689532 998.063904,851.967668 1015.808165,846.385101 1014.037179,841.812767 1021.619634,839.341988 1029.349341,840.740069 1033.007504,835.936066 1036.995995,834.716291 1038.581962,838.551301 1048.220699,835.516507 1047.657278,833.304326 1051.674986,826.009287 1054.663374,825.133272 1027.634541,740.386937"/>
    <poly id="225312927" type="building.yes" color="255,230,230" fill="1" layer="-1.00" shape="1017.275382,865.757133 1022.867899,882.701759 1053.884961,872.545602 1048.300909,855.601142 1017.275382,865.757133"/>
    <poly id="225312928" type="building.yes" color="255,230,230" fill="1" layer="-1.00" shape="970.210061,712.630446 975.642069,729.249238 1006.598322,719.202544 1001.166120,702.594830 970.210061,712.630446"/>
    <poly id="246148565" type="building.yes" color="255,230,230" fill="1" layer="-1.00" shape="1691.459672,451.186591 1694.652384,446.905409 1693.041323,445.646680 1694.527396,443.547996 1686.959918,438.720637 1685.431058,440.851666 1682.922630,438.750425 1642.554099,501.341001 1645.723449,503.224088 1644.864461,505.114973 1650.654515,508.602009 1654.496064,502.791676 1657.218924,504.708983 1671.130227,484.044708 1677.911834,473.969630 1686.721735,460.886335 1685.453783,460.068663 1691.459672,451.186591"/>
    <poly id="246148566" type="building.yes" color="255,230,230" fill="1" layer="-1.00" shape="1726.931228,562.865408 1704.919304,550.565055 1697.938072,561.279791 1699.753153,563.176337 1695.905730,568.875435 1686.031827,563.784231 1688.922926,559.451714 1684.803799,556.813755 1695.481719,536.697562 1697.539498,537.910979 1703.240006,529.877229 1700.717892,528.375488 1713.011745,508.940555 1740.701219,524.869862 1733.460679,536.622764 1740.669908,541.297576 1726.931228,562.865408"/>
    <poly id="246148567" type="building.yes" color="255,230,230" fill="1" layer="-1.00" shape="1642.775082,524.761274 1664.791331,538.350033 1692.674559,496.945172 1671.130227,484.044708 1657.218924,504.708983 1642.775082,524.761274"/>
    <poly id="246148568" type="building.yes" color="255,230,230" fill="1" layer="-1.00" shape="1619.379445,537.277649 1609.663297,531.168246 1682.395202,417.333645 1693.097637,422.976969 1682.922630,438.750425 1642.554099,501.341001 1619.379445,537.277649"/>
    <poly id="246148569" type="building.yes" color="255,230,230" fill="1" layer="-1.00" shape="1550.221202,494.563681 1558.592709,480.781538 1561.330099,482.432552 1579.840121,451.887393 1576.596609,449.935994 1592.818010,423.126273 1596.385270,425.262808 1614.784016,394.815150 1612.741928,392.913435 1621.014500,377.951665 1636.578763,386.494179 1634.596118,390.081064 1654.130287,400.802709 1656.513641,398.080298 1670.862134,406.828334 1662.677515,420.148113 1659.061362,417.943779 1636.472262,454.737976 1640.337254,457.092395 1628.850372,475.812790 1624.695015,473.285117 1603.537250,507.812836 1606.357147,509.532403 1597.716638,523.674899 1585.416179,516.206805 1587.128841,513.391278 1566.375514,500.831348 1564.828902,503.372982 1550.221202,494.563681"/>
    <poly id="246148570" type="building.yes" color="255,230,230" fill="1" layer="-1.00" shape="1639.965481,372.997951 1641.659074,369.915412 1632.961067,364.506860 1637.775280,356.985955 1635.941587,355.899870 1641.773380,344.703356 1644.414514,346.152257 1649.223670,338.853398 1657.911029,344.728252 1659.238933,342.559295 1666.668004,347.927733 1667.530824,345.870321 1678.281841,352.703261 1677.779662,354.435691 1683.967945,358.165124 1682.637495,360.445097 1691.910356,366.089021 1684.942730,376.570822 1688.837033,378.748211 1691.597312,374.990304 1704.307492,382.567915 1702.124904,386.805567 1705.110627,388.262378 1715.594396,371.496314 1719.037331,373.185752 1721.949609,367.931783 1707.284741,359.043113 1715.604750,345.693153 1735.733044,359.116700 1743.185199,348.412772 1758.630269,358.485695 1750.804507,370.447344 1735.210011,361.759489 1730.044239,369.938755 1719.381128,386.822882 1716.056493,392.089628 1730.835634,400.758780 1724.672086,411.381138 1721.793102,410.037839 1713.842174,422.696447 1703.524086,416.795303 1704.264156,414.957240 1700.139613,412.552417 1698.691493,414.829693 1687.362894,407.516971 1695.230947,393.701228 1702.004485,397.210810 1703.473425,393.656615 1699.926291,391.376086 1698.483777,393.775677 1684.832224,386.176531 1686.050333,383.660724 1681.709495,380.784435 1680.865221,382.031402 1682.234071,383.217938 1676.935667,391.316448 1667.657747,385.894581 1665.966156,388.521741 1639.965481,372.997951"/>
    <poly id="246148571" type="building.yes" color="255,230,230" fill="1" layer="-1.00" shape="1677.911834,473.969630 1701.102811,486.574568 1728.987950,445.103224 1709.536179,432.628221 1698.009984,449.014982 1700.974338,451.404359 1698.794565,455.519890 1691.459672,451.186591 1685.453783,460.068663 1686.721735,460.886335 1677.911834,473.969630"/>
    <poly id="246148572" type="building.yes" color="255,230,230" fill="1" layer="-1.00" shape="1593.860874,495.550655 1577.378994,485.221095 1594.744094,456.937988 1611.696961,467.267250 1593.860874,495.550655"/>
    <poly id="246148573" type="building.yes" color="255,230,230" fill="1" layer="-1.00" shape="1608.217742,436.652362 1623.555782,446.256028 1642.084392,418.221794 1625.829080,407.908424 1608.217742,436.652362"/>