<?xml version="1.0" encoding="UTF-8"?>

<!-- generated on 2022-01-09 20:06:20 by Eclipse SUMO netconvert Version 1.11.0
<configuration xmlns:xsi="http://www.w3.org/2001/XMLSchema-instance" xsi:noNamespaceSchemaLocation="http://sumo.dlr.de/xsd/netconvertConfiguration.xsd">

    <input>
        <type-files value="/usr/share/sumo/data/typemap/osmNetconvert.typ.xml"/>
        <osm-files value="osm_bbox.osm.xml"/>
    </input>

    <output>
        <output-file value="osm.net.xml"/>
        <output.street-names value="true"/>
        <output.original-names value="true"/>
    </output>

    <projection>
        <proj.utm value="true"/>
    </projection>

    <processing>
        <geometry.remove value="true"/>
        <roundabouts.guess value="true"/>
    </processing>

    <tls_building>
        <tls.discard-simple value="true"/>
        <tls.join value="true"/>
        <tls.guess-signals value="true"/>
        <tls.default-type value="actuated"/>
    </tls_building>

    <ramp_guessing>
        <ramps.guess value="true"/>
    </ramp_guessing>

    <junctions>
        <junctions.join value="true"/>
        <junctions.corner-detail value="5"/>
    </junctions>

    <report>
        <verbose value="true"/>
        <aggregate-warnings value="5"/>
    </report>

</configuration>
-->

<net version="1.9" junctionCornerDetail="5" limitTurnSpeed="5.50" xmlns:xsi="http://www.w3.org/2001/XMLSchema-instance" xsi:noNamespaceSchemaLocation="http://sumo.dlr.de/xsd/net_file.xsd">

    <location netOffset="-667356.20,-4545200.19" convBoundary="0.00,0.00,1362.45,1207.69" origBoundary="28.987714,41.030930,29.022147,41.065828" projParameter="+proj=utm +zone=35 +ellps=WGS84 +datum=WGS84 +units=m +no_defs"/>

    <type id="highway.bridleway" priority="1" numLanes="1" speed="2.78" allow="pedestrian" oneway="1" width="2.00"/>
    <type id="highway.bus_guideway" priority="1" numLanes="1" speed="27.78" allow="bus" oneway="1"/>
    <type id="highway.cycleway" priority="1" numLanes="1" speed="8.33" allow="bicycle" oneway="0" width="1.00"/>
    <type id="highway.footway" priority="1" numLanes="1" speed="2.78" allow="pedestrian" oneway="1" width="2.00"/>
    <type id="highway.ford" priority="1" numLanes="1" speed="2.78" allow="army" oneway="0"/>
    <type id="highway.living_street" priority="2" numLanes="1" speed="2.78" disallow="tram rail_urban rail rail_electric rail_fast ship" oneway="0"/>
    <type id="highway.motorway" priority="14" numLanes="2" speed="39.44" allow="private emergency authority army vip passenger hov taxi bus coach delivery truck trailer motorcycle evehicle custom1 custom2" oneway="1"/>
    <type id="highway.motorway_link" priority="9" numLanes="1" speed="22.22" allow="private emergency authority army vip passenger hov taxi bus coach delivery truck trailer motorcycle evehicle custom1 custom2" oneway="1"/>
    <type id="highway.path" priority="1" numLanes="1" speed="2.78" allow="pedestrian bicycle" oneway="0" width="2.00"/>
    <type id="highway.pedestrian" priority="1" numLanes="1" speed="2.78" allow="pedestrian" oneway="1" width="2.00"/>
    <type id="highway.primary" priority="12" numLanes="2" speed="27.78" disallow="tram rail_urban rail rail_electric rail_fast ship" oneway="0"/>
    <type id="highway.primary_link" priority="7" numLanes="1" speed="22.22" disallow="tram rail_urban rail rail_electric rail_fast ship" oneway="0"/>
    <type id="highway.raceway" priority="15" numLanes="2" speed="83.33" allow="vip" oneway="0"/>
    <type id="highway.residential" priority="3" numLanes="1" speed="13.89" disallow="tram rail_urban rail rail_electric rail_fast ship" oneway="0"/>
    <type id="highway.secondary" priority="11" numLanes="1" speed="27.78" disallow="tram rail_urban rail rail_electric rail_fast ship" oneway="0"/>
    <type id="highway.secondary_link" priority="6" numLanes="1" speed="22.22" disallow="tram rail_urban rail rail_electric rail_fast ship" oneway="0"/>
    <type id="highway.service" priority="1" numLanes="1" speed="5.56" allow="pedestrian delivery bicycle" oneway="0"/>
    <type id="highway.stairs" priority="1" numLanes="1" speed="1.39" allow="pedestrian" oneway="1" width="2.00"/>
    <type id="highway.step" priority="1" numLanes="1" speed="1.39" allow="pedestrian" oneway="1" width="2.00"/>
    <type id="highway.steps" priority="1" numLanes="1" speed="1.39" allow="pedestrian" oneway="1" width="2.00"/>
    <type id="highway.tertiary" priority="10" numLanes="1" speed="22.22" disallow="tram rail_urban rail rail_electric rail_fast ship" oneway="0"/>
    <type id="highway.tertiary_link" priority="5" numLanes="1" speed="22.22" disallow="tram rail_urban rail rail_electric rail_fast ship" oneway="0"/>
    <type id="highway.track" priority="1" numLanes="1" speed="5.56" allow="pedestrian motorcycle moped bicycle" oneway="0"/>
    <type id="highway.trunk" priority="13" numLanes="2" speed="27.78" disallow="pedestrian bicycle tram rail_urban rail rail_electric rail_fast ship" oneway="0"/>
    <type id="highway.trunk_link" priority="8" numLanes="1" speed="22.22" disallow="pedestrian bicycle tram rail_urban rail rail_electric rail_fast ship" oneway="0"/>
    <type id="highway.unclassified" priority="4" numLanes="1" speed="13.89" disallow="tram rail_urban rail rail_electric rail_fast ship" oneway="0"/>
    <type id="highway.unsurfaced" priority="1" numLanes="1" speed="8.33" disallow="tram rail_urban rail rail_electric rail_fast ship" oneway="0"/>
    <type id="railway.highspeed" priority="21" numLanes="1" speed="69.44" allow="rail_fast" oneway="1"/>
    <type id="railway.light_rail" priority="19" numLanes="1" speed="27.78" allow="rail_urban" oneway="1"/>
    <type id="railway.preserved" priority="16" numLanes="1" speed="27.78" allow="rail" oneway="1"/>
    <type id="railway.rail" priority="20" numLanes="1" speed="44.44" allow="rail" oneway="1"/>
    <type id="railway.subway" priority="18" numLanes="1" speed="27.78" allow="rail_urban" oneway="1"/>
    <type id="railway.tram" priority="17" numLanes="1" speed="13.89" allow="tram" oneway="1"/>

    <edge id=":1365831801_0" function="internal">
        <lane id=":1365831801_0_0" index="0" disallow="tram rail_urban rail rail_electric rail_fast ship" speed="3.65" length="4.67" shape="983.43,177.70 984.63,176.91 985.52,176.85 986.10,177.53 986.37,178.95"/>
    </edge>
    <edge id=":1408445479_0" function="internal">
        <lane id=":1408445479_0_0" index="0" disallow="tram rail_urban rail rail_electric rail_fast ship" speed="3.65" length="4.67" shape="609.83,168.29 610.72,167.16 611.55,166.82 612.32,167.28 613.03,168.53"/>
    </edge>
    <edge id=":1428980356_0" function="internal">
        <lane id=":1428980356_0_0" index="0" disallow="tram rail_urban rail rail_electric rail_fast ship" speed="13.89" length="0.30" shape="755.39,405.16 755.15,404.98"/>
    </edge>
    <edge id=":1428980356_1" function="internal">
        <lane id=":1428980356_1_0" index="0" disallow="tram rail_urban rail rail_electric rail_fast ship" speed="13.89" length="0.30" shape="757.03,402.39 757.27,402.57"/>
    </edge>
    <edge id=":1428980361_0" function="internal">
        <lane id=":1428980361_0_0" index="0" disallow="tram rail_urban rail rail_electric rail_fast ship" speed="13.89" length="13.42" shape="706.48,407.58 703.26,408.96 700.42,410.43 697.68,412.09 694.78,414.06"/>
    </edge>
    <edge id=":1428980361_1" function="internal">
        <lane id=":1428980361_1_0" index="0" disallow="tram rail_urban rail rail_electric rail_fast ship" speed="8.62" length="5.80" shape="706.48,407.58 703.27,408.46 700.80,408.45"/>
    </edge>
    <edge id=":1428980361_2" function="internal">
        <lane id=":1428980361_2_0" index="0" disallow="tram rail_urban rail rail_electric rail_fast ship" speed="3.65" length="2.34" shape="706.48,407.58 705.07,407.27 704.41,406.67"/>
    </edge>
    <edge id=":1428980361_9" function="internal">
        <lane id=":1428980361_9_0" index="0" disallow="tram rail_urban rail rail_electric rail_fast ship" speed="8.62" length="5.98" shape="700.80,408.45 700.39,408.45 697.82,407.57 695.58,405.81"/>
    </edge>
    <edge id=":1428980361_10" function="internal">
        <lane id=":1428980361_10_0" index="0" disallow="tram rail_urban rail rail_electric rail_fast ship" speed="3.65" length="2.34" shape="704.41,406.67 704.49,405.78 705.32,404.60"/>
    </edge>
    <edge id=":1428980361_3" function="internal">
        <lane id=":1428980361_3_0" index="0" disallow="tram rail_urban rail rail_electric rail_fast ship" speed="7.19" length="7.96" shape="697.91,403.61 699.38,404.74 701.10,405.28 703.08,405.23 705.32,404.60"/>
    </edge>
    <edge id=":1428980361_4" function="internal">
        <lane id=":1428980361_4_0" index="0" disallow="tram rail_urban rail rail_electric rail_fast ship" speed="7.26" length="12.75" shape="697.91,403.61 699.47,406.13 699.47,408.71 697.91,411.35 694.78,414.06"/>
    </edge>
    <edge id=":1428980361_5" function="internal">
        <lane id=":1428980361_5_0" index="0" disallow="tram rail_urban rail rail_electric rail_fast ship" speed="3.65" length="4.67" shape="697.91,403.61 698.15,405.03 697.84,405.87 696.99,406.13 695.58,405.81"/>
    </edge>
    <edge id=":1428980361_6" function="internal">
        <lane id=":1428980361_6_0" index="0" disallow="tram rail_urban rail rail_electric rail_fast ship" speed="5.59" length="7.10" shape="692.94,411.44 694.90,409.83 696.00,408.35 696.22,407.01 695.58,405.81"/>
    </edge>
    <edge id=":1428980361_7" function="internal">
        <lane id=":1428980361_7_0" index="0" disallow="tram rail_urban rail rail_electric rail_fast ship" speed="13.89" length="14.18" shape="692.94,411.44 695.95,409.42 698.92,407.63 702.00,406.03 705.32,404.60"/>
    </edge>
    <edge id=":1428980361_8" function="internal">
        <lane id=":1428980361_8_0" index="0" disallow="tram rail_urban rail rail_electric rail_fast ship" speed="3.65" length="2.34" shape="692.94,411.44 694.38,411.41 695.17,411.83"/>
    </edge>
    <edge id=":1428980361_11" function="internal">
        <lane id=":1428980361_11_0" index="0" disallow="tram rail_urban rail rail_electric rail_fast ship" speed="3.65" length="2.34" shape="695.17,411.83 695.30,412.72 694.78,414.06"/>
    </edge>
    <edge id=":2088930979_0" function="internal">
        <lane id=":2088930979_0_0" index="0" disallow="tram rail_urban rail rail_electric rail_fast ship" speed="22.22" length="9.39" shape="260.28,710.46 260.92,719.83"/>
    </edge>
    <edge id=":2088930979_1" function="internal">
        <lane id=":2088930979_1_0" index="0" disallow="tram rail_urban rail rail_electric rail_fast ship" speed="6.16" length="7.79" shape="260.28,710.46 260.26,713.21 259.80,715.22 258.90,716.48 257.57,717.00"/>
    </edge>
    <edge id=":2088930979_2" function="internal">
        <lane id=":2088930979_2_0" index="0" disallow="tram rail_urban rail rail_electric rail_fast ship" speed="6.06" length="7.82" shape="257.26,713.82 258.69,714.08 259.77,715.17 260.52,717.08 260.92,719.83"/>
    </edge>
    <edge id=":2088930979_3" function="internal">
        <lane id=":2088930979_3_0" index="0" disallow="tram rail_urban rail rail_electric rail_fast ship" speed="3.65" length="4.67" shape="257.26,713.82 258.53,714.50 259.01,715.26 258.69,716.09 257.57,717.00"/>
    </edge>
    <edge id=":2250193847_0" function="internal">
        <lane id=":2250193847_0_0" index="0" disallow="tram rail_urban rail rail_electric rail_fast ship" speed="6.54" length="9.02" shape="664.65,274.52 662.48,275.62 661.16,277.17 660.71,279.18 661.12,281.64"/>
    </edge>
    <edge id=":2250193847_1" function="internal">
        <lane id=":2250193847_1_0" index="0" disallow="tram rail_urban rail rail_electric rail_fast ship" speed="13.89" length="11.13" shape="664.65,274.52 654.18,278.27"/>
    </edge>
    <edge id=":2250193847_2" function="internal">
        <lane id=":2250193847_2_0" index="0" disallow="tram rail_urban rail rail_electric rail_fast ship" speed="3.65" length="2.34" shape="664.65,274.52 663.26,274.14 662.63,273.51"/>
    </edge>
    <edge id=":2250193847_6" function="internal">
        <lane id=":2250193847_6_0" index="0" disallow="tram rail_urban rail rail_electric rail_fast ship" speed="3.65" length="2.34" shape="662.63,273.51 662.75,272.63 663.64,271.49"/>
    </edge>
    <edge id=":2250193847_3" function="internal">
        <lane id=":2250193847_3_0" index="0" disallow="tram rail_urban rail rail_electric rail_fast ship" speed="13.89" length="11.26" shape="653.04,275.28 663.64,271.49"/>
    </edge>
    <edge id=":2250193847_4" function="internal">
        <lane id=":2250193847_4_0" index="0" disallow="tram rail_urban rail rail_electric rail_fast ship" speed="7.18" length="4.19" shape="653.04,275.28 655.58,274.90 657.07,275.53"/>
    </edge>
    <edge id=":2250193847_5" function="internal">
        <lane id=":2250193847_5_0" index="0" disallow="tram rail_urban rail rail_electric rail_fast ship" speed="3.65" length="2.34" shape="653.04,275.28 654.44,275.60 655.10,276.20"/>
    </edge>
    <edge id=":2250193847_7" function="internal">
        <lane id=":2250193847_7_0" index="0" disallow="tram rail_urban rail rail_electric rail_fast ship" speed="7.18" length="7.53" shape="657.07,275.53 657.78,275.83 659.62,278.08 661.12,281.64"/>
    </edge>
    <edge id=":2250193847_8" function="internal">
        <lane id=":2250193847_8_0" index="0" disallow="tram rail_urban rail rail_electric rail_fast ship" speed="3.65" length="2.34" shape="655.10,276.20 655.01,277.09 654.18,278.27"/>
    </edge>
    <edge id=":2250193851_0" function="internal">
        <lane id=":2250193851_0_0" index="0" disallow="tram rail_urban rail rail_electric rail_fast ship" speed="13.89" length="14.44" shape="603.19,303.08 599.57,289.11"/>
    </edge>
    <edge id=":2250193851_1" function="internal">
        <lane id=":2250193851_1_0" index="0" disallow="tram rail_urban rail rail_electric rail_fast ship" speed="8.39" length="14.37" shape="603.19,303.08 602.81,299.37 603.74,296.26 605.98,293.75 609.53,291.85"/>
    </edge>
    <edge id=":2250193851_2" function="internal">
        <lane id=":2250193851_2_0" index="0" disallow="tram rail_urban rail rail_electric rail_fast ship" speed="3.65" length="4.67" shape="603.19,303.08 603.67,301.72 604.34,301.13 605.21,301.32 606.29,302.28"/>
    </edge>
    <edge id=":2250193851_3" function="internal">
        <lane id=":2250193851_3_0" index="0" disallow="tram rail_urban rail rail_electric rail_fast ship" speed="6.97" length="9.62" shape="610.67,294.84 608.24,296.12 606.70,297.79 606.05,299.85 606.29,302.28"/>
    </edge>
    <edge id=":2250193851_4" function="internal">
        <lane id=":2250193851_4_0" index="0" disallow="tram rail_urban rail rail_electric rail_fast ship" speed="7.82" length="14.63" shape="610.67,294.84 606.70,295.73 603.52,295.07 601.15,292.86 599.57,289.11"/>
    </edge>
    <edge id=":2250193851_5" function="internal">
        <lane id=":2250193851_5_0" index="0" disallow="tram rail_urban rail rail_electric rail_fast ship" speed="3.65" length="4.67" shape="610.67,294.84 609.26,294.52 608.60,293.91 608.69,293.02 609.53,291.85"/>
    </edge>
    <edge id=":2250193851_6" function="internal">
        <lane id=":2250193851_6_0" index="0" disallow="tram rail_urban rail rail_electric rail_fast ship" speed="6.28" length="9.04" shape="602.67,288.31 603.64,290.63 605.11,291.99 607.07,292.40 609.53,291.85"/>
    </edge>
    <edge id=":2250193851_7" function="internal">
        <lane id=":2250193851_7_0" index="0" disallow="tram rail_urban rail rail_electric rail_fast ship" speed="13.89" length="14.44" shape="602.67,288.31 606.29,302.28"/>
    </edge>
    <edge id=":2250193851_8" function="internal">
        <lane id=":2250193851_8_0" index="0" disallow="tram rail_urban rail rail_electric rail_fast ship" speed="3.65" length="4.67" shape="602.67,288.31 602.20,289.67 601.52,290.26 600.65,290.07 599.57,289.11"/>
    </edge>
    <edge id=":2250193861_0" function="internal">
        <lane id=":2250193861_0_0" index="0" disallow="tram rail_urban rail rail_electric rail_fast ship" speed="8.34" length="11.26" shape="743.33,343.15 739.86,342.89 737.02,343.34 734.82,344.49 733.25,346.34"/>
    </edge>
    <edge id=":2250193861_1" function="internal">
        <lane id=":2250193861_1_0" index="0" disallow="tram rail_urban rail rail_electric rail_fast ship" speed="3.65" length="2.55" shape="743.33,343.15 742.28,342.17 742.01,341.32 742.13,341.14"/>
    </edge>
    <edge id=":2250193861_4" function="internal">
        <lane id=":2250193861_4_0" index="0" disallow="tram rail_urban rail rail_electric rail_fast ship" speed="3.65" length="2.12" shape="742.13,341.14 742.53,340.59 743.84,339.99"/>
    </edge>
    <edge id=":2250193861_2" function="internal">
        <lane id=":2250193861_2_0" index="0" disallow="tram rail_urban rail rail_electric rail_fast ship" speed="5.85" length="9.12" shape="740.80,333.52 739.78,335.97 739.95,337.87 741.30,339.21 743.84,339.99"/>
    </edge>
    <edge id=":2250193861_3" function="internal">
        <lane id=":2250193861_3_0" index="0" disallow="tram rail_urban rail rail_electric rail_fast ship" speed="13.89" length="14.87" shape="740.80,333.52 733.25,346.34"/>
    </edge>
    <edge id=":2250193865_0" function="internal">
        <lane id=":2250193865_0_0" index="0" disallow="tram rail_urban rail rail_electric rail_fast ship" speed="22.22" length="13.90" shape="898.61,354.56 896.20,357.21 893.72,359.49 891.01,361.50 887.96,363.37"/>
    </edge>
    <edge id=":2250193865_1" function="internal">
        <lane id=":2250193865_1_0" index="0" disallow="tram rail_urban rail rail_electric rail_fast ship" speed="8.98" length="5.93" shape="898.61,354.56 895.75,356.92 893.60,357.49"/>
    </edge>
    <edge id=":2250193865_2" function="internal">
        <lane id=":2250193865_2_0" index="0" disallow="tram rail_urban rail rail_electric rail_fast ship" speed="3.65" length="2.34" shape="898.61,354.56 897.23,354.97 896.36,354.76"/>
    </edge>
    <edge id=":2250193865_9" function="internal">
        <lane id=":2250193865_9_0" index="0" disallow="tram rail_urban rail rail_electric rail_fast ship" speed="8.98" length="10.05" shape="893.60,357.49 892.37,357.81 888.49,357.21 884.10,355.14"/>
    </edge>
    <edge id=":2250193865_10" function="internal">
        <lane id=":2250193865_10_0" index="0" disallow="tram rail_urban rail rail_electric rail_fast ship" speed="3.65" length="2.34" shape="896.36,354.76 896.01,353.94 896.17,352.50"/>
    </edge>
    <edge id=":2250193865_3" function="internal">
        <lane id=":2250193865_3_0" index="0" disallow="tram rail_urban rail rail_electric rail_fast ship" speed="7.67" length="11.41" shape="885.75,352.40 889.01,353.99 891.83,354.53 894.22,354.04 896.17,352.50"/>
    </edge>
    <edge id=":2250193865_4" function="internal">
        <lane id=":2250193865_4_0" index="0" disallow="tram rail_urban rail rail_electric rail_fast ship" speed="7.03" length="14.95" shape="885.75,352.40 889.82,355.46 891.54,358.31 890.93,360.95 887.96,363.37"/>
    </edge>
    <edge id=":2250193865_5" function="internal">
        <lane id=":2250193865_5_0" index="0" disallow="tram rail_urban rail rail_electric rail_fast ship" speed="3.65" length="4.67" shape="885.75,352.40 886.37,353.71 886.30,354.60 885.54,355.08 884.10,355.14"/>
    </edge>
    <edge id=":2250193865_6" function="internal">
        <lane id=":2250193865_6_0" index="0" disallow="tram rail_urban rail rail_electric rail_fast ship" speed="5.21" length="7.54" shape="886.40,360.58 887.56,359.51 887.56,358.25 886.41,356.79 884.10,355.14"/>
    </edge>
    <edge id=":2250193865_7" function="internal">
        <lane id=":2250193865_7_0" index="0" disallow="tram rail_urban rail rail_electric rail_fast ship" speed="22.22" length="12.76" shape="886.40,360.58 889.31,358.83 891.71,357.06 893.89,355.03 896.17,352.50"/>
    </edge>
    <edge id=":2250193865_8" function="internal">
        <lane id=":2250193865_8_0" index="0" disallow="tram rail_urban rail rail_electric rail_fast ship" speed="3.65" length="2.34" shape="886.40,360.58 887.84,360.69 888.58,361.20"/>
    </edge>
    <edge id=":2250193865_11" function="internal">
        <lane id=":2250193865_11_0" index="0" disallow="tram rail_urban rail rail_electric rail_fast ship" speed="3.65" length="2.34" shape="888.58,361.20 888.62,362.09 887.96,363.37"/>
    </edge>
    <edge id=":2250193866_0" function="internal">
        <lane id=":2250193866_0_0" index="0" disallow="tram rail_urban rail rail_electric rail_fast ship" speed="6.08" length="7.77" shape="683.56,353.11 684.20,355.80 684.23,357.85 683.66,359.27 682.47,360.05"/>
    </edge>
    <edge id=":2250193866_1" function="internal">
        <lane id=":2250193866_1_0" index="0" disallow="tram rail_urban rail rail_electric rail_fast ship" speed="3.65" length="1.15" shape="681.52,356.99 682.62,357.32"/>
    </edge>
    <edge id=":2250193866_2" function="internal">
        <lane id=":2250193866_2_0" index="0" disallow="tram rail_urban rail rail_electric rail_fast ship" speed="3.65" length="3.53" shape="682.62,357.32 682.91,357.40 683.53,358.05 683.38,358.93 682.47,360.05"/>
    </edge>
    <edge id=":2250193867_0" function="internal">
        <lane id=":2250193867_0_0" index="0" allow="pedestrian delivery bicycle" speed="5.15" length="5.23" shape="338.51,354.85 337.13,354.28 335.92,354.25 334.88,354.76 334.01,355.82"/>
    </edge>
    <edge id=":2250193867_1" function="internal">
        <lane id=":2250193867_1_0" index="0" allow="pedestrian delivery bicycle" speed="3.65" length="4.67" shape="338.51,354.85 337.87,353.56 337.92,352.66 338.67,352.17 340.11,352.08"/>
    </edge>
    <edge id=":2250193867_2" function="internal">
        <lane id=":2250193867_2_0" index="0" allow="pedestrian delivery bicycle" speed="4.96" length="5.10" shape="339.15,347.80 338.52,349.07 338.47,350.20 339.00,351.21 340.11,352.08"/>
    </edge>
    <edge id=":2250193867_3" function="internal">
        <lane id=":2250193867_3_0" index="0" disallow="tram rail_urban rail rail_electric rail_fast ship" speed="22.22" length="9.52" shape="339.15,347.80 334.01,355.82"/>
    </edge>
    <edge id=":2250193873_0" function="internal">
        <lane id=":2250193873_0_0" index="0" disallow="tram rail_urban rail rail_electric rail_fast ship" speed="22.22" length="14.42" shape="833.14,394.86 820.64,402.05"/>
    </edge>
    <edge id=":2250193873_1" function="internal">
        <lane id=":2250193873_1_0" index="0" disallow="tram rail_urban rail rail_electric rail_fast ship" speed="8.25" length="5.80" shape="833.14,394.86 829.61,396.24 827.60,396.20"/>
    </edge>
    <edge id=":2250193873_2" function="internal">
        <lane id=":2250193873_2_0" index="0" disallow="tram rail_urban rail rail_electric rail_fast ship" speed="3.65" length="2.34" shape="833.14,394.86 831.70,394.76 830.95,394.27"/>
    </edge>
    <edge id=":2250193873_9" function="internal">
        <lane id=":2250193873_9_0" index="0" disallow="tram rail_urban rail rail_electric rail_fast ship" speed="8.25" length="8.50" shape="827.60,396.20 826.38,396.17 823.45,394.65 820.80,391.68"/>
    </edge>
    <edge id=":2250193873_10" function="internal">
        <lane id=":2250193873_10_0" index="0" disallow="tram rail_urban rail rail_electric rail_fast ship" speed="3.65" length="2.34" shape="830.95,394.27 830.90,393.38 831.54,392.09"/>
    </edge>
    <edge id=":2250193873_3" function="internal">
        <lane id=":2250193873_3_0" index="0" disallow="tram rail_urban rail rail_electric rail_fast ship" speed="6.80" length="9.41" shape="823.46,389.89 825.21,391.88 827.14,392.90 829.25,392.97 831.54,392.09"/>
    </edge>
    <edge id=":2250193873_4" function="internal">
        <lane id=":2250193873_4_0" index="0" disallow="tram rail_urban rail rail_electric rail_fast ship" speed="7.88" length="14.47" shape="823.46,389.89 825.20,393.50 825.31,396.72 823.79,399.57 820.64,402.05"/>
    </edge>
    <edge id=":2250193873_5" function="internal">
        <lane id=":2250193873_5_0" index="0" disallow="tram rail_urban rail rail_electric rail_fast ship" speed="3.65" length="4.67" shape="823.46,389.89 823.46,391.33 823.02,392.11 822.14,392.23 820.80,391.68"/>
    </edge>
    <edge id=":2250193873_6" function="internal">
        <lane id=":2250193873_6_0" index="0" disallow="tram rail_urban rail rail_electric rail_fast ship" speed="6.36" length="9.04" shape="819.05,399.27 821.01,397.73 821.96,395.95 821.89,393.93 820.80,391.68"/>
    </edge>
    <edge id=":2250193873_7" function="internal">
        <lane id=":2250193873_7_0" index="0" disallow="tram rail_urban rail rail_electric rail_fast ship" speed="22.22" length="14.42" shape="819.05,399.27 831.54,392.09"/>
    </edge>
    <edge id=":2250193873_8" function="internal">
        <lane id=":2250193873_8_0" index="0" disallow="tram rail_urban rail rail_electric rail_fast ship" speed="3.65" length="2.34" shape="819.05,399.27 820.48,399.37 821.23,399.86"/>
    </edge>
    <edge id=":2250193873_11" function="internal">
        <lane id=":2250193873_11_0" index="0" disallow="tram rail_urban rail rail_electric rail_fast ship" speed="3.65" length="2.34" shape="821.23,399.86 821.28,400.75 820.64,402.05"/>
    </edge>
    <edge id=":2250193876_0" function="internal">
        <lane id=":2250193876_0_0" index="0" disallow="tram rail_urban rail rail_electric rail_fast ship" speed="3.65" length="1.86" shape="695.45,405.66 695.21,404.24 695.35,403.85"/>
    </edge>
    <edge id=":2250193876_3" function="internal">
        <lane id=":2250193876_3_0" index="0" disallow="tram rail_urban rail rail_electric rail_fast ship" speed="3.65" length="2.82" shape="695.35,403.85 695.51,403.40 696.37,403.14 697.77,403.46"/>
    </edge>
    <edge id=":2250193876_1" function="internal">
        <lane id=":2250193876_1_0" index="0" disallow="tram rail_urban rail rail_electric rail_fast ship" speed="5.62" length="5.10" shape="698.90,398.74 698.02,400.40 697.54,401.74 697.46,402.76 697.77,403.46"/>
    </edge>
    <edge id=":2250193876_2" function="internal">
        <lane id=":2250193876_2_0" index="0" disallow="tram rail_urban rail rail_electric rail_fast ship" speed="11.02" length="8.43" shape="689.79,402.83 692.32,402.79 694.24,402.29 695.92,402.23 697.77,403.46"/>
    </edge>
    <edge id=":2250193886_0" function="internal">
        <lane id=":2250193886_0_0" index="0" disallow="tram rail_urban rail rail_electric rail_fast ship" speed="6.64" length="6.76" shape="677.97,437.06 676.90,435.64 675.60,434.70 674.06,434.25 672.29,434.29"/>
    </edge>
    <edge id=":2250193886_1" function="internal">
        <lane id=":2250193886_1_0" index="0" disallow="tram rail_urban rail rail_electric rail_fast ship" speed="11.14" length="10.72" shape="677.97,437.06 676.53,434.32 675.87,432.15 675.90,429.89 676.52,426.86"/>
    </edge>
    <edge id=":2250193886_2" function="internal">
        <lane id=":2250193886_2_0" index="0" disallow="tram rail_urban rail rail_electric rail_fast ship" speed="3.65" length="2.34" shape="677.97,437.06 678.07,435.62 678.57,434.88"/>
    </edge>
    <edge id=":2250193886_9" function="internal">
        <lane id=":2250193886_9_0" index="0" disallow="tram rail_urban rail rail_electric rail_fast ship" speed="3.65" length="2.34" shape="678.57,434.88 679.46,434.83 680.75,435.48"/>
    </edge>
    <edge id=":2250193886_3" function="internal">
        <lane id=":2250193886_3_0" index="0" disallow="tram rail_urban rail rail_electric rail_fast ship" speed="9.84" length="8.28" shape="679.63,427.61 679.13,429.98 679.10,431.70 679.61,433.34 680.75,435.48"/>
    </edge>
    <edge id=":2250193886_4" function="internal">
        <lane id=":2250193886_4_0" index="0" disallow="tram rail_urban rail rail_electric rail_fast ship" speed="8.21" length="4.66" shape="679.63,427.61 678.64,430.21 677.48,431.69"/>
    </edge>
    <edge id=":2250193886_5" function="internal">
        <lane id=":2250193886_5_0" index="0" disallow="tram rail_urban rail rail_electric rail_fast ship" speed="3.65" length="2.34" shape="679.63,427.61 678.57,428.59 677.70,428.79"/>
    </edge>
    <edge id=":2250193886_10" function="internal">
        <lane id=":2250193886_10_0" index="0" disallow="tram rail_urban rail rail_electric rail_fast ship" speed="8.21" length="5.94" shape="677.48,431.69 677.09,432.18 674.97,433.54 672.29,434.29"/>
    </edge>
    <edge id=":2250193886_11" function="internal">
        <lane id=":2250193886_11_0" index="0" disallow="tram rail_urban rail rail_electric rail_fast ship" speed="3.65" length="2.34" shape="677.70,428.79 677.01,428.21 676.52,426.86"/>
    </edge>
    <edge id=":2250193886_6" function="internal">
        <lane id=":2250193886_6_0" index="0" disallow="tram rail_urban rail rail_electric rail_fast ship" speed="6.68" length="6.77" shape="671.82,431.12 673.54,430.65 674.90,429.78 675.89,428.51 676.52,426.86"/>
    </edge>
    <edge id=":2250193886_7" function="internal">
        <lane id=":2250193886_7_0" index="0" disallow="tram rail_urban rail rail_electric rail_fast ship" speed="8.17" length="10.62" shape="671.82,431.12 674.61,431.07 677.03,431.78 679.07,433.25 680.75,435.48"/>
    </edge>
    <edge id=":2250193886_8" function="internal">
        <lane id=":2250193886_8_0" index="0" disallow="tram rail_urban rail rail_electric rail_fast ship" speed="3.65" length="4.67" shape="671.82,431.12 673.12,431.74 673.64,432.47 673.36,433.32 672.29,434.29"/>
    </edge>
    <edge id=":2250193888_0" function="internal">
        <lane id=":2250193888_0_0" index="0" disallow="tram rail_urban rail rail_electric rail_fast ship" speed="13.89" length="18.87" shape="638.67,439.22 634.31,439.85 629.24,440.78 624.38,442.15 620.60,444.13"/>
    </edge>
    <edge id=":2250193888_1" function="internal">
        <lane id=":2250193888_1_0" index="0" disallow="tram rail_urban rail rail_electric rail_fast ship" speed="6.34" length="15.34" shape="638.67,439.22 634.63,438.55 632.15,435.89 631.76,432.33 633.97,428.96"/>
    </edge>