<?xml version="1.0" encoding="UTF-8"?>

<!-- generated on 2022-01-23 20:45:34 by Eclipse SUMO duarouter Version 1.11.0
<configuration xmlns:xsi="http://www.w3.org/2001/XMLSchema-instance" xsi:noNamespaceSchemaLocation="http://sumo.dlr.de/xsd/duarouterConfiguration.xsd">

    <input>
        <net-file value="osm.net.xml"/>
        <route-files value="osm.passenger.trips.xml"/>
    </input>

    <output>
        <output-file value="osm.passenger.trips.xml.tmp"/>
        <write-trips value="true"/>
    </output>

    <time>
        <begin value="0"/>
        <end value="1200"/>
    </time>

    <report>
        <no-warnings value="true"/>
        <ignore-errors value="true"/>
        <no-step-log value="true"/>
    </report>

</configuration>
-->

<routes xmlns:xsi="http://www.w3.org/2001/XMLSchema-instance" xsi:noNamespaceSchemaLocation="http://sumo.dlr.de/xsd/routes_file.xsd">
    <vType id="veh_passenger" maxSpeed="2.00" vClass="passenger"/>
    <trip id="veh0" type="veh_passenger" depart="0.00" departLane="best" departSpeed="max" from="229739460#0" to="-229739446#0"/>
    <trip id="veh1" type="veh_passenger" depart="7.00" departLane="best" departSpeed="max" from="-24826574" to="198806390"/>
    <trip id="veh2" type="veh_passenger" depart="14.00" departLane="best" departSpeed="max" from="24804868#0" to="24828319"/>
    <trip id="veh3" type="veh_passenger" depart="21.00" departLane="best" departSpeed="max" from="48656852#0" to="-229984733#0"/>
    <trip id="veh5" type="veh_passenger" depart="35.00" departLane="best" departSpeed="max" from="-127195808" to="198806390"/>
    <trip id="veh6" type="veh_passenger" depart="42.00" departLane="best" from="229741782" to="24826328#1"/>
    <trip id="veh7" type="veh_passenger" depart="49.00" departLane="best" departSpeed="max" from="-24807752#2" to="24826574"/>
    <trip id="veh8" type="veh_passenger" depart="56.00" departLane="best" departSpeed="max" from="24807713#0" to="-229739446#0"/>
    <trip id="veh9" type="veh_passenger" depart="63.00" departLane="best" departSpeed="max" from="-43960791" to="127195808"/>
    <trip id="veh10" type="veh_passenger" depart="70.00" departLane="best" departSpeed="max" from="637980525#0" to="215555575#2"/>
    <trip id="veh11" type="veh_passenger" depart="77.00" departLane="best" departSpeed="max" from="-215555541" to="-229984733#0"/>
    <trip id="veh12" type="veh_passenger" depart="84.00" departLane="best" departSpeed="max" from="24828279#0" to="24826574"/>
    <trip id="veh13" type="veh_passenger" depart="91.00" departLane="best" departSpeed="max" from="24807713#0" to="44793791#3"/>
    <trip id="veh14" type="veh_passenger" depart="98.00" departLane="best" departSpeed="max" from="127195809" to="668160769#2"/>
    <trip id="veh15" type="veh_passenger" depart="105.00" departLane="best" departSpeed="max" from="-44793952#1" to="24826429"/>
    <trip id="veh16" type="veh_passenger" depart="112.00" departLane="best" departSpeed="max" from="24807713#0" to="24828277#5"/>
    <trip id="veh17" type="veh_passenger" depart="119.00" departLane="best" departSpeed="max" from="24828279#0" to="24826429"/>
    <trip id="veh18" type="veh_passenger" depart="126.00" departLane="best" departSpeed="max" from="24803677#0" to="-229747040"/>
    <trip id="veh19" type="veh_passenger" depart="133.00" departLane="best" departSpeed="max" from="-24807752#2" to="215555541"/>
    <trip id="veh20" type="veh_passenger" depart="140.00" departLane="best" departSpeed="max" from="-215555541" to="215555527"/>
    <trip id="veh21" type="veh_passenger" depart="147.00" departLane="best" departSpeed="max" from="-44793952#1" to="198806390"/>
    <trip id="veh22" type="veh_passenger" depart="154.00" departLane="best" departSpeed="max" from="-24826429" to="49516108#1"/>
    <trip id="veh23" type="veh_passenger" depart="161.00" departLane="best" departSpeed="max" from="229739460#0" to="24826574"/>
    <trip id="veh24" type="veh_passenger" depart="168.00" departLane="best" departSpeed="max" from="-215555575#2" to="44793791#3"/>
    <trip id="veh25" type="veh_passenger" depart="175.00" departLane="best" departSpeed="max" from="-215555575#2" to="229739461#1"/>
    <trip id="veh26" type="veh_passenger" depart="182.00" departLane="best" departSpeed="max" from="668160773#0" to="24828277#5"/>
    <trip id="veh27" type="veh_passenger" depart="189.00" departLane="best" departSpeed="max" from="127195809" to="25543096#14"/>
    <trip id="veh28" type="veh_passenger" depart="196.00" departLane="best" departSpeed="max" from="-24807752#2" to="-229739446#0"/>
    <trip id="veh29" type="veh_passenger" depart="203.00" departLane="best" departSpeed="max" from="-43960791" to="215555541"/>
    <trip id="veh30" type="veh_passenger" depart="210.00" departLane="best" departSpeed="max" from="-24807752#2" to="49516108#1"/>
    <trip id="veh31" type="veh_passenger" depart="217.00" departLane="best" departSpeed="max" from="24828279#0" to="215555563"/>
    <trip id="veh32" type="veh_passenger" depart="224.00" departLane="best" departSpeed="max" from="229984733#0" to="229998116#2"/>
    <trip id="veh33" type="veh_passenger" depart="231.00" departLane="best" departSpeed="max" from="48656852#0" to="24807752#2"/>
    <trip id="veh34" type="veh_passenger" depart="238.00" departLane="best" departSpeed="max" from="127195809" to="215555541"/>
    <trip id="veh35" type="veh_passenger" depart="245.00" departLane="best" departSpeed="max" from="229739446#0" to="49516098#1"/>
    <trip id="veh36" type="veh_passenger" depart="252.00" departLane="best" departSpeed="max" from="-44796867#5" to="198806390"/>
    <trip id="veh38" type="veh_passenger" depart="266.00" departLane="best" departSpeed="max" from="-215555541" to="-229747040"/>
    <trip id="veh39" type="veh_passenger" depart="273.00" departLane="best" departSpeed="max" from="-215555541" to="24828277#5"/>
    <trip id="veh40" type="veh_passenger" depart="280.00" departLane="best" departSpeed="max" from="24804918#0" to="24804444#3"/>
    <trip id="veh41" type="veh_passenger" depart="287.00" departLane="best" departSpeed="max" from="-198806099" to="229739461#1"/>
    <trip id="veh42" type="veh_passenger" depart="294.00" departLane="best" departSpeed="max" from="668160773#0" to="24826328#1"/>
    <trip id="veh43" type="veh_passenger" depart="301.00" departLane="best" departSpeed="max" from="-127195808" to="44793791#3"/>
    <trip id="veh44" type="veh_passenger" depart="308.00" departLane="best" departSpeed="max" from="229984733#0" to="24826328#1"/>
    <trip id="veh45" type="veh_passenger" depart="315.00" departLane="best" departSpeed="max" from="-24826429" to="24828277#5"/>
    <trip id="veh46" type="veh_passenger" depart="322.00" departLane="best" departSpeed="max" from="24828279#0" to="215555541"/>
    <trip id="veh47" type="veh_passenger" depart="329.00" departLane="best" departSpeed="max" from="-866003620#1" to="198806099"/>
    <trip id="veh48" type="veh_passenger" depart="336.00" departLane="best" departSpeed="max" from="48656852#0" to="48656851"/>
    <trip id="veh49" type="veh_passenger" depart="343.00" departLane="best" departSpeed="max" from="-24826574" to="24828277#5"/>
    <trip id="veh50" type="veh_passenger" depart="350.00" departLane="best" departSpeed="max" from="229739446#0" to="127195808"/>
    <trip id="veh51" type="veh_passenger" depart="357.00" departLane="best" departSpeed="max" from="24804868#0" to="24826328#1"/>
    <trip id="veh52" type="veh_passenger" depart="364.00" departLane="best" departSpeed="max" from="24804918#0" to="24826328#1"/>
    <trip id="veh53" type="veh_passenger" depart="371.00" departLane="best" departSpeed="max" from="-127195808" to="215555575#2"/>
    <trip id="veh54" type="veh_passenger" depart="378.00" departLane="best" departSpeed="max" from="-127195808" to="49516100"/>
    <trip id="veh55" type="veh_passenger" depart="385.00" departLane="best" departSpeed="max" from="24828279#0" to="44796922#6"/>
    <trip id="veh56" type="veh_passenger" depart="392.00" departLane="best" departSpeed="max" from="-43960791" to="-229747040"/>
    <trip id="veh57" type="veh_passenger" depart="399.00" departLane="best" departSpeed="max" from="24828279#0" to="49516108#1"/>
    <trip id="veh58" type="veh_passenger" depart="406.00" departLane="best" departSpeed="max" from="-215555541" to="24807752#2"/>
    <trip id="veh59" type="veh_passenger" depart="413.00" departLane="best" departSpeed="max" from="-198806099" to="44793952#1"/>
    <trip id="veh60" type="veh_passenger" depart="420.00" departLane="best" departSpeed="max" from="24804918#0" to="-866003620#0"/>
    <trip id="veh61" type="veh_passenger" depart="427.00" departLane="best" departSpeed="max" from="-48656851" to="24826328#1"/>
    <trip id="veh62" type="veh_passenger" depart="434.00" departLane="best" departSpeed="max" from="-24826429" to="49516098#1"/>
    <trip id="veh63" type="veh_passenger" depart="441.00" departLane="best" departSpeed="max" from="-44796922#6" to="198806390"/>
    <trip id="veh64" type="veh_passenger" depart="448.00" departLane="best" departSpeed="max" from="127195809" to="44793791#3"/>
    <trip id="veh65" type="veh_passenger" depart="455.00" departLane="best" departSpeed="max" from="-24807752#2" to="215555563"/>
    <trip id="veh66" type="veh_passenger" depart="462.00" departLane="best" departSpeed="max" from="668160773#0" to="24828319"/>
    <trip id="veh68" type="veh_passenger" depart="476.00" departLane="best" departSpeed="max" from="-215555563" to="198806390"/>
    <trip id="veh69" type="veh_passenger" depart="483.00" departLane="best" departSpeed="max" from="-43960791" to="24826574"/>
    <trip id="veh70" type="veh_passenger" depart="490.00" departLane="best" departSpeed="max" from="-24807752#2" to="198806390"/>
    <trip id="veh71" type="veh_passenger" depart="497.00" departLane="best" departSpeed="max" from="-198806099" to="24828277#5"/>
    <trip id="veh72" type="veh_passenger" depart="504.00" departLane="best" departSpeed="max" from="-24807752#2" to="49516100"/>
    <trip id="veh73" type="veh_passenger" depart="511.00" departLane="best" departSpeed="max" from="24828279#0" to="-229984733#0"/>
    <trip id="veh74" type="veh_passenger" depart="518.00" departLane="best" departSpeed="max" from="-24826429" to="24828319"/>
    <trip id="veh75" type="veh_passenger" depart="525.00" departLane="best" departSpeed="max" from="-24807752#2" to="127195808"/>
    <trip id="veh76" type="veh_passenger" depart="532.00" departLane="best" departSpeed="max" from="-48656851" to="44796867#5"/>
    <trip id="veh77" type="veh_passenger" depart="539.00" departLane="best" departSpeed="max" from="24807713#0" to="198806099"/>
    <trip id="veh78" type="veh_passenger" depart="546.00" departLane="best" departSpeed="max" from="-44796922#6" to="24807752#2"/>
    <trip id="veh79" type="veh_passenger" depart="553.00" departLane="best" departSpeed="max" from="24804868#0" to="24828319"/>
    <trip id="veh80" type="veh_passenger" depart="560.00" departLane="best" departSpeed="max" from="668160773#0" to="-44793792"/>
    <trip id="veh81" type="veh_passenger" depart="567.00" departLane="best" departSpeed="max" from="-44796867#5" to="215555575#2"/>
    <trip id="veh82" type="veh_passenger" depart="574.00" departLane="best" departSpeed="max" from="24828279#0" to="215555527"/>
    <trip id="veh83" type="veh_passenger" depart="581.00" departLane="best" from="-215555584#1" to="24804444#3"/>
    <trip id="veh84" type="veh_passenger" depart="588.00" departLane="best" departSpeed="max" from="-44796922#6" to="215555541"/>
    <trip id="veh85" type="veh_passenger" depart="595.00" departLane="best" departSpeed="max" from="-24826429" to="49516100"/>
    <trip id="veh86" type="veh_passenger" depart="602.00" departLane="best" departSpeed="max" from="-44796922#6" to="48656851"/>
    <trip id="veh87" type="veh_passenger" depart="609.00" departLane="best" departSpeed="max" from="668160773#0" to="44796922#6"/>
    <trip id="veh88" type="veh_passenger" depart="616.00" departLane="best" departSpeed="max" from="668160773#0" to="49516100"/>
    <trip id="veh89" type="veh_passenger" depart="623.00" departLane="best" departSpeed="max" from="24828279#0" to="198806099"/>
    <trip id="veh90" type="veh_passenger" depart="630.00" departLane="best" departSpeed="max" from="-48656851" to="198806390"/>
    <trip id="veh91" type="veh_passenger" depart="637.00" departLane="best" departSpeed="max" from="-44796867#5" to="-229747040"/>
    <trip id="veh92" type="veh_passenger" depart="644.00" departLane="best" departSpeed="max" from="-44793952#1" to="668160769#2"/>
    <trip id="veh93" type="veh_passenger" depart="651.00" departLane="best" departSpeed="max" from="-24826429" to="44796867#5"/>
    <trip id="veh94" type="veh_passenger" depart="658.00" departLane="best" departSpeed="max" from="-44796922#6" to="24804444#3"/>
    <trip id="veh95" type="veh_passenger" depart="665.00" departLane="best" departSpeed="max" from="637980525#0" to="668160769#2"/>
    <trip id="veh96" type="veh_passenger" depart="672.00" departLane="best" departSpeed="max" from="127195809" to="44793791#3"/>
    <trip id="veh97" type="veh_passenger" depart="679.00" departLane="best" departSpeed="max" from="-215555575#2" to="215555563"/>
    <trip id="veh98" type="veh_passenger" depart="686.00" departLane="best" departSpeed="max" from="668160773#0" to="24826429"/>
    <trip id="veh99" type="veh_passenger" depart="693.00" departLane="best" departSpeed="max" from="127195809" to="44793952#1"/>
    <trip id="veh100" type="veh_passenger" depart="700.00" departLane="best" departSpeed="max" from="-198806099" to="24826574"/>
    <trip id="veh101" type="veh_passenger" depart="707.00" departLane="best" departSpeed="max" from="-215555575#2" to="49516108#1"/>
    <trip id="veh102" type="veh_passenger" depart="714.00" departLane="best" departSpeed="max" from="229739446#0" to="24828319"/>
    <trip id="veh103" type="veh_passenger" depart="721.00" departLane="best" departSpeed="max" from="-24826429" to="-866003620#0"/>
    <trip id="veh104" type="veh_passenger" depart="728.00" departLane="best" departSpeed="max" from="48656852#0" to="215555527"/>
    <trip id="veh105" type="veh_passenger" depart="735.00" departLane="best" departSpeed="max" from="229739446#0" to="24828277#5"/>
    <trip id="veh106" type="veh_passenger" depart="742.00" departLane="best" departSpeed="max" from="-44796867#5" to="24826574"/>
    <trip id="veh107" type="veh_passenger" depart="749.00" departLane="best" departSpeed="max" from="-24807752#2" to="44793791#3"/>
    <trip id="veh108" type="veh_passenger" depart="756.00" departLane="best" departSpeed="max" from="229984733#0" to="215555563"/>
    <trip id="veh109" type="veh_passenger" depart="763.00" departLane="best" departSpeed="max" from="-43960791" to="44793952#1"/>
    <trip id="veh110" type="veh_passenger" depart="770.00" departLane="best" departSpeed="max" from="-198806099" to="24807752#2"/>
    <trip id="veh111" type="veh_passenger" depart="777.00" departLane="best" departSpeed="max" from="668160773#0" to="668160769#2"/>
    <trip id="veh112" type="veh_passenger" depart="784.00" departLane="best" departSpeed="max" from="-198806099" to="198806390"/>
    <trip id="veh113" type="veh_passenger" depart="791.00" departLane="best" departSpeed="max" from="-24826429" to="49516100"/>
    <trip id="veh114" type="veh_passenger" depart="798.00" departLane="best" departSpeed="max" from="-44793952#1" to="127195808"/>
    <trip id="veh115" type="veh_passenger" depart="805.00" departLane="best" departSpeed="max" from="229984733#0" to="-229739446#0"/>
    <trip id="veh116" type="veh_passenger" depart="812.00" departLane="best" departSpeed="max" from="229984733#0" to="49516108#1"/>
    <trip id="veh117" type="veh_passenger" depart="819.00" departLane="best" departSpeed="max" from="-215555563" to="-866003620#0"/>
    <trip id="veh118" type="veh_passenger" depart="826.00" departLane="best" departSpeed="max" from="-215555541" to="24826429"/>
    <trip id="veh119" type="veh_passenger" depart="833.00" departLane="best" departSpeed="max" from="24803677#0" to="198806390"/>
    <trip id="veh120" type="veh_passenger" depart="840.00" departLane="best" departSpeed="max" from="229739460#0" to="215555541"/>
    <trip id="veh121" type="veh_passenger" depart="847.00" departLane="best" departSpeed="max" from="-48656851" to="49516100"/>
    <trip id="veh122" type="veh_passenger" depart="854.00" departLane="best" departSpeed="max" from="24828279#0" to="-229984733#0"/>
    <trip id="veh123" type="veh_passenger" depart="861.00" departLane="best" departSpeed="max" from="-44796922#6" to="215555541"/>
    <trip id="veh124" type="veh_passenger" depart="868.00" departLane="best" departSpeed="max" from="-127195808" to="44793952#1"/>
    <trip id="veh125" type="veh_passenger" depart="875.00" departLane="best" departSpeed="max" from="229739460#0" to="215555541"/>
    <trip id="veh126" type="veh_passenger" depart="882.00" departLane="best" departSpeed="max" from="24804868#0" to="24826429"/>
    <trip id="veh127" type="veh_passenger" depart="889.00" departLane="best" departSpeed="max" from="-198806099" to="49516098#1"/>
    <trip id="veh128" type="veh_passenger" depart="896.00" departLane="best" departSpeed="max" from="48656852#0" to="24826328#1"/>
    <trip id="veh129" type="veh_passenger" depart="903.00" departLane="best" departSpeed="max" from="24807713#0" to="24826574"/>
    <trip id="veh130" type="veh_passenger" depart="910.00" departLane="best" departSpeed="max" from="-215555563" to="-866003620#0"/>
    <trip id="veh131" type="veh_passenger" depart="917.00" departLane="best" departSpeed="max" from="-43960791" to="49516098#1"/>
    <trip id="veh132" type="veh_passenger" depart="924.00" departLane="best" departSpeed="max" from="24804918#0" to="48656851"/>
    <trip id="veh133" type="veh_passenger" depart="931.00" departLane="best" departSpeed="max" from="48656852#0" to="198806390"/>
    <trip id="veh134" type="veh_passenger" depart="938.00" departLane="best" departSpeed="max" from="-24826429" to="-866003620#0"/>
    <trip id="veh135" type="veh_passenger" depart="945.00" departLane="best" departSpeed="max" from="24804918#0" to="49516098#1"/>
    <trip id="veh136" type="veh_passenger" depart="952.00" departLane="best" departSpeed="max" from="-44796867#5" to="24828277#5"/>
    <trip id="veh137" type="veh_passenger" depart="959.00" departLane="best" departSpeed="max" from="-215555575#2" to="49516100"/>
    <trip id="veh138" type="veh_passenger" depart="966.00" departLane="best" departSpeed="max" from="24828279#0" to="668160769#2"/>
    <trip id="veh139" type="veh_passenger" depart="973.00" departLane="best" departSpeed="max" from="24807713#0" to="49516098#1"/>
    <trip id="veh140" type="veh_passenger" depart="980.00" departLane="best" departSpeed="max" from="-127195808" to="44793791#3"/>
    <trip id="veh141" type="veh_passenger" depart="987.00" departLane="best" departSpeed="max" from="-43960791" to="49516100"/>
    <trip id="veh142" type="veh_passenger" depart="994.00" departLane="best" departSpeed="max" from="24804918#0" to="48656851"/>
    <trip id="veh143" type="veh_passenger" depart="1001.00" departLane="best" departSpeed="max" from="24807713#0" to="215555541"/>
    <trip id="veh144" type="veh_passenger" depart="1008.00" departLane="best" departSpeed="max" from="24804918#0" to="-866003620#0"/>
    <trip id="veh145" type="veh_passenger" depart="1015.00" departLane="best" departSpeed="max" from="24828279#0" to="48656851"/>
    <trip id="veh146" type="veh_passenger" depart="1022.00" departLane="best" departSpeed="max" from="-24807752#2" to="44796922#6"/>
    <trip id="veh147" type="veh_passenger" depart="1029.00" departLane="best" departSpeed="max" from="-48656851" to="215555563"/>
    <trip id="veh148" type="veh_passenger" depart="1036.00" departLane="best" departSpeed="max" from="24804918#0" to="215555527"/>
    <trip id="veh149" type="veh_passenger" depart="1043.00" departLane="best" departSpeed="max" from="-127195808" to="198806099"/>
    <trip id="veh150" type="veh_passenger" depart="1050.00" departLane="best" departSpeed="max" from="-43960791" to="48656851"/>
    <trip id="veh151" type="veh_passenger" depart="1057.00" departLane="best" departSpeed="max" from="668160773#0" to="215555541"/>
    <trip id="veh152" type="veh_passenger" depart="1064.00" departLane="best" departSpeed="max" from="229739460#0" to="229998116#2"/>
    <trip id="veh153" type="veh_passenger" depart="1071.00" departLane="best" departSpeed="max" from="668160773#0" to="24826328#1"/>
    <trip id="veh154" type="veh_passenger" depart="1078.00" departLane="best" departSpeed="max" from="637980525#0" to="-866003620#0"/>
    <trip id="veh155" type="veh_passenger" depart="1085.00" departLane="best" departSpeed="max" from="668160773#0" to="198806099"/>
    <trip id="veh156" type="veh_passenger" depart="1092.00" departLane="best" departSpeed="max" from="668160773#0" to="215555541"/>
    <trip id="veh157" type="veh_passenger" depart="1099.00" departLane="best" departSpeed="max" from="24804868#0" to="215555563"/>
    <trip id="veh159" type="veh_passenger" depart="1113.00" departLane="best" departSpeed="max" from="-44796867#5" to="24826429"/>
    <trip id="veh160" type="veh_passenger" depart="1120.00" departLane="best" departSpeed="max" from="-24826429" to="25543096#14"/>
    <trip id="veh161" type="veh_passenger" depart="1127.00" departLane="best" departSpeed="max" from="-127195808" to="49516100"/>
    <trip id="veh162" type="veh_passenger" depart="1134.00" departLane="best" departSpeed="max" from="127195809" to="44793791#3"/>
    <trip id="veh163" type="veh_passenger" depart="1141.00" departLane="best" departSpeed="max" from="24804868#0" to="24828319"/>
    <trip id="veh164" type="veh_passenger" depart="1148.00" departLane="best" departSpeed="max" from="-44793952#1" to="-229984733#0"/>
    <trip id="veh165" type="veh_passenger" depart="1155.00" departLane="best" departSpeed="max" from="229984733#0" to="215555575#2"/>
    <trip id="veh166" type="veh_passenger" depart="1162.00" departLane="best" departSpeed="max" from="-43960791" to="48656851"/>
    <trip id="veh167" type="veh_passenger" depart="1169.00" departLane="best" departSpeed="max" from="24803677#0" to="215555563"/>
    <trip id="veh168" type="veh_passenger" depart="1176.00" departLane="best" departSpeed="max" from="-43960791" to="229998116#2"/>
    <trip id="veh169" type="veh_passenger" depart="1183.00" departLane="best" departSpeed="max" from="-215555563" to="24790521#0"/>
    <trip id="veh170" type="veh_passenger" depart="1190.00" departLane="best" departSpeed="max" from="637980525#0" to="24828319"/>
    <trip id="veh171" type="veh_passenger" depart="1197.00" departLane="best" departSpeed="max" from="-127195808" to="215555541"/>
</routes>
