<?xml version="1.0" encoding="UTF-8"?>

<!-- generated on 2022-01-09 20:14:41 by Eclipse SUMO polyconvert Version 1.11.0
<configuration xmlns:xsi="http://www.w3.org/2001/XMLSchema-instance" xsi:noNamespaceSchemaLocation="http://sumo.dlr.de/xsd/polyconvertConfiguration.xsd">

    <input>
        <net-file value="osm.net.xml"/>
        <osm-files value="osm_bbox.osm.xml"/>
        <osm.keep-full-type value="true"/>
        <type-file value="/usr/share/sumo/data/typemap/osmPolyconvert.typ.xml"/>
    </input>

    <output>
        <output-file value="osm.poly.xml"/>
    </output>

    <processing>
        <poi-layer-offset value="5"/>
    </processing>

    <report>
        <verbose value="true"/>
    </report>

</configuration>
-->

<additional xmlns:xsi="http://www.w3.org/2001/XMLSchema-instance" xsi:noNamespaceSchemaLocation="http://sumo.dlr.de/xsd/additional_file.xsd">
    <location netOffset="-667356.20,-4545200.19" convBoundary="-260.49,-1105.94,2545.55,2834.26" origBoundary="28.987714,41.030930,29.022147,41.065828" projParameter="+proj=utm +zone=35 +ellps=WGS84 +datum=WGS84 +units=m +no_defs"/>

    <poly id="225312799" type="building.yes" color="255,230,230" fill="1" layer="-1.00" shape="168.386689,560.297027 192.460261,573.287948 196.296679,566.222232 194.743210,565.386964 198.228460,558.968580 196.184930,557.866631 198.195456,554.158159 181.207605,544.994731 182.445495,542.712607 178.964630,540.844699 168.386689,560.297027"/>
    <poly id="225312800" type="building.yes" color="255,230,230" fill="1" layer="-1.00" shape="168.527436,576.584239 166.744272,576.232469 162.175825,599.876482 164.436545,600.305812 164.131811,601.865044 195.495582,607.891403 196.440095,602.992247 194.933034,602.702320 195.933813,597.548972 195.004412,597.372220 196.367976,590.327734 194.927899,590.050446 195.938353,584.841781 194.314126,584.526960 195.229365,579.804860 168.880540,574.748418 168.527436,576.584239"/>
    <poly id="225312834" type="building.yes" color="255,230,230" fill="1" layer="-1.00" shape="158.758290,668.833194 180.648574,667.322985 179.786405,655.006972 157.896086,656.517184 158.758290,668.833194"/>
    <poly id="225312869" type="building.yes" color="255,230,230" fill="1" layer="-1.00" shape="159.965643,693.275674 160.450538,707.382522 160.877449,719.610832 187.042384,718.709302 186.130418,692.385241 159.965643,693.275674"/>
    <poly id="225312875" type="building.yes" color="255,230,230" fill="1" layer="-1.00" shape="186.475388,642.341485 186.298521,616.967283 169.182740,617.087050 160.023642,617.144317 160.149082,635.941536 160.192195,642.518323 186.475388,642.341485"/>
    <poly id="225470895" type="building.yes" color="255,230,230" fill="1" layer="-1.00" shape="1263.593901,243.686485 1266.519101,237.533369 1260.720516,234.789651 1257.795320,240.942769 1263.593901,243.686485"/>
    <poly id="225470900" type="building.yes" color="255,230,230" fill="1" layer="-1.00" shape="1230.890338,201.157716 1235.352531,188.875076 1223.850705,184.722834 1219.380123,197.005287 1230.890338,201.157716"/>
    <poly id="246148565" type="building.yes" color="255,230,230" fill="1" layer="-1.00" shape="417.329672,438.006591 420.522384,433.725409 418.911323,432.466680 420.397396,430.367996 412.829918,425.540637 411.301058,427.671666 408.792630,425.570425 368.424099,488.161001 371.593449,490.044088 370.734461,491.934973 376.524515,495.422009 380.366064,489.611676 383.088924,491.528983 397.000227,470.864708 403.781834,460.789630 412.591735,447.706335 411.323783,446.888663 417.329672,438.006591"/>
    <poly id="246148566" type="building.yes" color="255,230,230" fill="1" layer="-1.00" shape="452.801228,549.685408 430.789304,537.385055 423.808072,548.099791 425.623153,549.996337 421.775730,555.695435 411.901827,550.604231 414.792926,546.271714 410.673799,543.633755 421.351719,523.517562 423.409498,524.730979 429.110006,516.697229 426.587892,515.195488 438.881745,495.760555 466.571219,511.689862 459.330679,523.442764 466.539908,528.117576 452.801228,549.685408"/>
    <poly id="246148567" type="building.yes" color="255,230,230" fill="1" layer="-1.00" shape="368.645082,511.581274 390.661331,525.170033 418.544559,483.765172 397.000227,470.864708 383.088924,491.528983 368.645082,511.581274"/>
    <poly id="246148568" type="building.yes" color="255,230,230" fill="1" layer="-1.00" shape="345.249445,524.097649 335.533297,517.988246 408.265202,404.153645 418.967637,409.796969 408.792630,425.570425 368.424099,488.161001 345.249445,524.097649"/>
    <poly id="246148569" type="building.yes" color="255,230,230" fill="1" layer="-1.00" shape="276.091202,481.383681 284.462709,467.601538 287.200099,469.252552 305.710121,438.707393 302.466609,436.755994 318.688010,409.946273 322.255270,412.082808 340.654016,381.635150 338.611928,379.733435 346.884500,364.771665 362.448763,373.314179 360.466118,376.901064 380.000287,387.622709 382.383641,384.900298 396.732134,393.648334 388.547515,406.968113 384.931362,404.763779 362.342262,441.557976 366.207254,443.912395 354.720372,462.632790 350.565015,460.105117 329.407250,494.632836 332.227147,496.352403 323.586638,510.494899 311.286179,503.026805 312.998841,500.211278 292.245514,487.651348 290.698902,490.192982 276.091202,481.383681"/>
    <poly id="246148570" type="building.yes" color="255,230,230" fill="1" layer="-1.00" shape="365.835481,359.817951 367.529074,356.735412 358.831067,351.326860 363.645280,343.805955 361.811587,342.719870 367.643380,331.523356 370.284514,332.972257 375.093670,325.673398 383.781029,331.548252 385.108933,329.379295 392.538004,334.747733 393.400824,332.690321 404.151841,339.523261 403.649662,341.255691 409.837945,344.985124 408.507495,347.265097 417.780356,352.909021 410.812730,363.390822 414.707033,365.568211 417.467312,361.810304 430.177492,369.387915 427.994904,373.625567 430.980627,375.082378 441.464396,358.316314 444.907331,360.005752 447.819609,354.751783 433.154741,345.863113 441.474750,332.513153 461.603044,345.936700 469.055199,335.232772 484.500269,345.305695 476.674507,357.267344 461.080011,348.579489 455.914239,356.758755 445.251128,373.642882 441.926493,378.909628 456.705634,387.578780 450.542086,398.201138 447.663102,396.857839 439.712174,409.516447 429.394086,403.615303 430.134156,401.777240 426.009613,399.372417 424.561493,401.649693 413.232894,394.336971 421.100947,380.521228 427.874485,384.030810 429.343425,380.476615 425.796291,378.196086 424.353777,380.595677 410.702224,372.996531 411.920333,370.480724 407.579495,367.604435 406.735221,368.851402 408.104071,370.037938 402.805667,378.136448 393.527747,372.714581 391.836156,375.341741 365.835481,359.817951"/>
    <poly id="246148571" type="building.yes" color="255,230,230" fill="1" layer="-1.00" shape="403.781834,460.789630 426.972811,473.394568 454.857950,431.923224 435.406179,419.448221 423.879984,435.834982 426.844338,438.224359 424.664565,442.339890 417.329672,438.006591 411.323783,446.888663 412.591735,447.706335 403.781834,460.789630"/>
    <poly id="246148572" type="building.yes" color="255,230,230" fill="1" layer="-1.00" shape="319.730874,482.370655 303.248994,472.041095 320.614094,443.757988 337.566961,454.087250 319.730874,482.370655"/>
    <poly id="246148573" type="building.yes" color="255,230,230" fill="1" layer="-1.00" shape="334.087742,423.472362 349.425782,433.076028 367.954392,405.041794 351.699080,394.728424 334.087742,423.472362"/>
    <poly id="246150915" type="building.yes" color="255,230,230" fill="1" layer="-1.00" shape="968.452356,168.479675 976.074732,176.774513 964.455574,204.099581 952.616415,199.251340 956.647896,188.858106 954.943656,186.530767 944.191726,188.905375 942.938896,181.934221 945.076960,181.116894 943.484335,174.660008 968.452356,168.479675"/>
    <poly id="246150916" type="building.yes" color="255,230,230" fill="1" layer="-1.00" shape="943.484335,174.660008 945.076960,181.116894 942.938896,181.934221 944.191726,188.905375 944.870475,193.041961 916.436192,199.287208 914.319139,188.563995 912.834497,181.065459 943.484335,174.660008"/>
    <poly id="246150917" type="building.yes" color="255,230,230" fill="1" layer="-1.00" shape="912.834497,181.065459 914.319139,188.563995 908.443437,189.906474 910.022817,199.140003 892.754891,202.909118 889.042076,186.228821 912.834497,181.065459"/>
    <poly id="246150918" type="building.yes" color="255,230,230" fill="1" layer="-1.00" shape="889.042076,186.228821 892.754891,202.909118 875.581228,206.602680 872.028336,189.914956 889.042076,186.228821"/>
    <poly id="246150919" type="building.yes" color="255,230,230" fill="1" layer="-1.00" shape="872.028336,189.914956 875.581228,206.602680 858.060414,210.032837 854.760158,193.695262 872.028336,189.914956"/>
    <poly id="246150920" type="building.yes" color="255,230,230" fill="1" layer="-1.00" shape="858.060414,210.032837 854.760158,193.695262 837.570196,197.732882 841.302986,213.913754 858.060414,210.032837"/>
    <poly id="246152909" type="building.yes" color="255,230,230" fill="1" layer="-1.00" shape="970.028955,230.208763 981.095015,234.661617 983.813911,228.692497 972.747843,224.239639 970.028955,230.208763"/>
    <poly id="246152912" type="building.yes" color="255,230,230" fill="1" layer="-1.00" shape="982.054104,203.148506 992.621218,207.723213 995.399998,201.344482 984.841281,196.769964 982.054104,203.148506"/>
    <poly id="246152913" type="building.yes" color="255,230,230" fill="1" layer="-1.00" shape="984.841281,196.769964 995.399998,201.344482 998.596020,194.008952 988.028634,189.445339 984.841281,196.769964"/>
    <poly id="246152918" type="building.yes" color="255,230,230" fill="1" layer="-1.00" shape="966.962364,237.769432 978.028414,242.222282 981.095015,234.661617 970.028955,230.208763 966.962364,237.769432"/>
    <poly id="246152919" type="building.yes" color="255,230,230" fill="1" layer="-1.00" shape="976.004704,217.183193 987.062121,221.646965 989.611665,214.629822 979.044304,210.066221 976.004704,217.183193"/>
    <poly id="246152922" type="building.yes" color="255,230,230" fill="1" layer="-1.00" shape="934.492295,228.959695 927.238204,244.921739 943.574422,252.061424 950.827020,235.799448 934.492295,228.959695"/>
    <poly id="246152923" type="building.yes" color="255,230,230" fill="1" layer="-1.00" shape="918.295142,263.022156 907.972335,284.078917 924.242242,292.272285 935.108644,270.617092 918.295142,263.022156"/>
    <poly id="246152927" type="building.yes" color="255,230,230" fill="1" layer="-1.00" shape="979.044304,210.066221 989.611665,214.629822 992.621218,207.723213 982.054104,203.148506 979.044304,210.066221"/>
    <poly id="246152928" type="building.yes" color="255,230,230" fill="1" layer="-1.00" shape="927.238204,244.921739 918.295142,263.022156 935.108644,270.617092 943.574422,252.061424 927.238204,244.921739"/>
    <poly id="246152937" type="building.yes" color="255,230,230" fill="1" layer="-1.00" shape="972.747843,224.239639 983.813911,228.692497 987.062121,221.646965 976.004704,217.183193 972.747843,224.239639"/>
    <poly id="246152941" type="building.yes" color="255,230,230" fill="1" layer="-1.00" shape="939.188288,217.826375 934.492295,228.959695 950.827020,235.799448 955.523034,224.666138 939.188288,217.826375"/>
    <poly id="246152946" type="building.yes" color="255,230,230" fill="1" layer="-1.00" shape="964.455574,204.099581 952.616415,199.251340 947.697965,197.361171 939.188288,217.826375 955.523034,224.666138 964.455574,204.099581"/>
    <poly id="24805102" type="leisure.park" color="207,245,201" fill="1" layer="-2.00" shape="1223.563749,783.018690 1230.673026,786.159109 1232.138228,786.803742 1265.679001,771.979833 1321.826898,747.168240 1325.035878,742.199114 1330.058738,734.417011 1321.633186,724.159385 1311.886355,708.828395 1302.164029,692.065068 1294.643083,673.919493 1282.760592,657.106497 1277.283937,644.039839 1274.190541,621.686301 1268.148306,602.130758 1263.626042,579.011240 1259.219173,550.873628 1250.350788,537.917816 1204.392068,559.154319 1206.813178,569.795780 1212.207303,586.459422 1212.335270,612.343672 1212.603415,631.766374 1219.589799,769.697829 1223.563749,783.018690"/>
    <poly id="24805445" type="amenity.university" color="237,199,199" fill="1" layer="-2.00" shape="458.094073,322.885459 430.973418,331.306413 405.460441,333.788266 386.532323,326.712673 379.234715,326.256891 368.582372,329.812025 364.605834,332.697931 354.716473,349.955331 279.432214,472.451675 270.301879,491.837007 265.414942,498.501004 262.260332,509.947636 260.392377,526.910933 303.206379,536.409721 336.535158,535.583682 338.112028,559.657005 340.484420,601.520989 309.255924,617.523838 298.914712,627.717515 299.006251,643.936975 337.901430,643.482657 348.108284,646.881892 358.315130,650.281142 403.759859,628.205760 466.038062,734.422328 471.223703,731.242042 498.164359,721.073260 499.727897,652.796084 483.106051,590.578348 506.032574,535.020051 490.435020,522.444310 476.505519,500.554031 468.226715,483.824981 475.044639,469.596479 490.643465,450.537203 491.613141,439.773735 458.003694,394.428680 458.924017,385.818993 467.154663,373.066836 481.151353,360.446699 484.880767,355.500254 486.544736,344.163970 481.154943,328.700706 458.094073,322.885459"/>
    <poly id="249944117" type="amenity.parking" color="184,184,179" fill="1" layer="-1.00" shape="1081.908931,201.509900 1096.607149,177.088243 1080.495216,172.263803 1082.722625,166.094589 1061.470648,158.041905 1052.472196,174.141495 1059.114710,195.798860 1072.526624,201.738654 1081.908931,201.509900"/>
    <poly id="249944118" type="amenity.parking" color="184,184,179" fill="1" layer="-1.00" shape="1019.935093,262.345677 1005.890938,261.967588 1006.286834,247.658681 1002.131513,246.963429 1002.408761,241.482526 988.522314,237.164814 1005.665333,203.313044 1015.651513,183.381670 1024.792593,174.249927 1034.702115,176.699101 1024.738751,198.563740 1019.935093,262.345677"/>
    <poly id="249944119" type="building.yes" color="255,230,230" fill="1" layer="-1.00" shape="1058.823181,234.480761 1057.998386,244.392221 1030.366731,242.424554 1033.410950,206.916079 1049.454916,208.473153 1048.121541,233.935010 1058.823181,234.480761"/>
    <poly id="256839869" type="landuse.commercial" color="209,209,204" fill="1" layer="-3.00" shape="813.537202,285.977446 856.556864,298.649866 865.336719,280.690041 888.659038,288.667495 899.151075,277.822686 901.683666,275.203827 938.283475,204.853876 830.662208,227.943177 813.537202,285.977446"/>
    <poly id="26970150" type="leisure.park" color="207,245,201" fill="1" layer="-2.00" shape="366.579041,224.764315 418.744007,139.928154 437.694073,102.706456 456.711935,25.054009 457.948920,2.977829 451.914817,-17.420884 437.046489,-33.989651 421.100846,-38.397802 408.556019,-41.472919 389.644699,-37.195930 372.616141,-27.355256 359.381673,-17.194489 340.364554,17.082305 344.268566,27.668453 384.115010,50.106887 360.783430,89.905452 301.140623,93.550871 245.238799,102.414082 215.802355,126.400439 209.649919,142.799281 176.982620,182.318346 177.220358,200.251714 246.528876,249.410503 231.184123,263.621992 217.184624,306.177971 190.970841,327.549975 98.579062,290.127342 63.429546,336.388105 53.099781,363.388429 48.463879,377.478278 35.705593,418.396725 25.701074,464.676469 15.142323,514.609130 10.115542,558.347792 8.868359,570.615607 7.928161,581.224267 5.858688,629.506884 5.879077,671.705736 9.098203,712.289248 14.765532,756.871925 17.652771,798.358710 23.730263,826.078075 29.795456,831.503880 41.095498,834.527781 52.388749,833.430563 69.520282,814.927551 125.367043,727.996599 146.007951,678.849831 144.508846,645.092375 144.765273,610.686356 146.258015,590.626508 151.816441,570.026423 158.716066,554.399950 169.848404,534.238274 194.177784,505.136578 210.900370,490.223419 227.978347,481.838684 244.777255,480.512153 258.997290,482.003606 268.580914,465.227846 335.842680,351.534074 343.559146,338.825565 347.152199,329.910457 366.579041,224.764315"/>
    <poly id="280627255" type="aerialway.cable_car" color="51,51,51" fill="0" layer="-2.00" shape="-71.256494,293.869776 231.666174,440.813115"/>
    <poly id="363157870" type="leisure.swimming_pool" color="207,245,201" fill="1" layer="-2.00" shape="365.882184,626.083792 365.565622,613.824656 388.317580,613.256719 388.634104,625.515856 365.882184,626.083792"/>
    <poly id="410544738" type="leisure.park" color="207,245,201" fill="1" layer="-2.00" shape="633.960686,381.130650 686.577996,364.341966 702.225894,384.261538 687.083193,410.906383 661.735808,420.111356 633.960686,381.130650"/>
    <poly id="410544742" type="amenity.parking" color="184,184,179" fill="1" layer="-1.00" shape="465.624145,727.892573 430.038297,652.489047 432.668441,650.738681 424.168753,626.029220 455.158508,618.996483 447.326130,598.934222 465.657042,601.941996 476.924322,607.876051 486.717474,621.263027 490.820922,645.883010 495.288852,665.601697 495.909757,695.040481 491.779308,717.139285 465.624145,727.892573"/>
    <poly id="410544751" type="building.yes" color="255,230,230" fill="1" layer="-1.00" shape="666.316628,281.157693 707.487161,268.116693 713.860532,286.879498 672.690088,299.920460 666.316628,281.157693"/>
    <poly id="410544752" type="building.yes" color="255,230,230" fill="1" layer="-1.00" shape="707.487161,268.116693 730.794481,265.018802 731.148280,283.699146 713.860532,286.879498 707.487161,268.116693"/>
    <poly id="410544754" type="landuse.cemetery" color="194,194,130" fill="1" layer="-3.00" shape="384.492087,309.293412 419.449845,310.093382 448.201317,299.132704 447.190494,252.912269 382.757401,249.116174 377.278669,262.153542 372.407889,282.435990 375.264111,293.598016 382.432802,297.116591 384.492087,309.293412"/>
    <poly id="410544759" type="building.yes" color="255,230,230" fill="1" layer="-1.00" shape="770.237713,837.309589 751.725356,785.777877 773.041177,782.912224 788.479298,832.818376 770.237713,837.309589"/>
    <poly id="410544760" type="building.yes" color="255,230,230" fill="1" layer="-1.00" shape="773.041177,782.912224 770.937906,773.055769 747.966266,768.918849 748.866640,775.126556 751.725356,785.777877 773.041177,782.912224"/>
    <poly id="410544761" type="building.yes" color="255,230,230" fill="1" layer="-1.00" shape="752.124071,763.993471 761.015307,707.047643 780.020032,709.993924 771.128649,766.939733 752.124071,763.993471"/>
    <poly id="414808375" type="building.yes" color="255,230,230" fill="1" layer="-1.00" shape="1211.200602,379.363637 1221.628600,391.799857 1235.664786,380.081735 1224.473168,367.938954 1211.200602,379.363637"/>
    <poly id="414808376" type="building.yes" color="255,230,230" fill="1" layer="-1.00" shape="1301.538071,240.449426 1295.970322,212.318429 1284.416642,215.907070 1272.193602,219.347039 1274.765355,233.313229 1277.685872,246.010040 1301.538071,240.449426"/>
    <poly id="414808377" type="building.yes" color="255,230,230" fill="1" layer="-1.00" shape="1284.504656,305.305126 1290.810237,309.038021 1289.644812,303.035183 1285.685240,292.735974 1278.921542,295.390671 1279.301505,296.421334 1284.504656,305.305126"/>
    <poly id="414808378" type="building.yes" color="255,230,230" fill="1" layer="-1.00" shape="1293.594647,326.185964 1306.922628,331.735504 1308.107437,329.219064 1312.919428,316.722356 1299.247546,311.498131 1293.594647,326.185964"/>
    <poly id="414814328" type="building.yes" color="255,230,230" fill="1" layer="-1.00" shape="1266.331905,425.918312 1274.642028,427.686787 1281.936458,424.255643 1280.521517,417.036308 1271.351871,417.536274 1263.791392,419.006325 1266.331905,425.918312"/>
    <poly id="414814329" type="building.yes" color="255,230,230" fill="1" layer="-1.00" shape="1280.521517,417.036308 1280.688312,409.420153 1269.019236,409.995919 1271.351871,417.536274 1280.521517,417.036308"/>
    <poly id="414814330" type="building.yes" color="255,230,230" fill="1" layer="-1.00" shape="1259.806617,413.460709 1253.495349,408.150389 1249.207355,413.228025 1259.542337,424.584704 1263.791392,419.006325 1259.806617,413.460709"/>
    <poly id="414814331" type="building.yes" color="255,230,230" fill="1" layer="-1.00" shape="1259.542337,424.584704 1246.902050,434.846431 1238.935538,428.376159 1249.207355,413.228025 1259.542337,424.584704"/>
    <poly id="414814332" type="building.yes" color="255,230,230" fill="1" layer="-1.00" shape="1241.225542,446.912300 1255.719652,434.660467 1267.807314,448.423448 1254.429288,461.145244 1241.225542,446.912300"/>
    <poly id="414814333" type="building.yes" color="255,230,230" fill="1" layer="-1.00" shape="1241.167146,439.213213 1246.902050,434.846431 1238.935538,428.376159 1233.101497,433.762589 1241.167146,439.213213"/>
    <poly id="414814334" type="building.yes" color="255,230,230" fill="1" layer="-1.00" shape="1231.727923,437.540994 1238.805288,443.546495 1233.484975,449.266868 1227.745276,443.969714 1231.727923,437.540994"/>
    <poly id="414814336" type="building.yes" color="255,230,230" fill="1" layer="-1.00" shape="1227.742157,463.486145 1231.684148,455.168155 1224.745452,451.909490 1220.803468,460.227483 1227.742157,463.486145"/>
    <poly id="414814338" type="building.yes" color="255,230,230" fill="1" layer="-1.00" shape="1278.476591,464.619768 1282.443298,453.036660 1283.508200,445.130146 1273.566145,444.479336 1273.909766,448.186158 1269.302525,455.078127 1278.476591,464.619768"/>
    <poly id="414814339" type="building.yes" color="255,230,230" fill="1" layer="-1.00" shape="1270.014319,444.242122 1269.868724,438.507117 1282.724586,439.347140 1283.508200,445.130146 1273.566145,444.479336 1270.014319,444.242122"/>
    <poly id="414814340" type="building.yes" color="255,230,230" fill="1" layer="-1.00" shape="1271.969691,301.106814 1283.514460,311.791552 1283.426253,313.066926 1268.675986,310.850396 1270.351943,302.702457 1271.969691,301.106814"/>
    <poly id="414814341" type="building.yes" color="255,230,230" fill="1" layer="-1.00" shape="1283.426253,313.066926 1288.981636,313.950059 1287.420690,323.677957 1278.128279,322.197898 1267.199887,320.546925 1268.675986,310.850396 1283.426253,313.066926"/>
    <poly id="414814342" type="building.yes" color="255,230,230" fill="1" layer="-1.00" shape="1278.128279,322.197898 1278.818414,328.389742 1265.623904,330.929844 1267.423608,327.638884 1267.199887,320.546925 1278.128279,322.197898"/>
    <poly id="414814345" type="building.yes" color="255,230,230" fill="1" layer="-1.00" shape="1273.581347,358.271596 1284.675438,356.738437 1285.234571,351.808303 1274.138407,353.796835 1273.581347,358.271596"/>
    <poly id="414814346" type="building.yes" color="255,230,230" fill="1" layer="-1.00" shape="1283.948485,348.857350 1281.677362,339.007974 1267.329042,341.621500 1269.225753,351.662201 1283.948485,348.857350"/>
    <poly id="414814347" type="building.yes" color="255,230,230" fill="1" layer="-1.00" shape="1250.671483,389.790799 1256.678038,383.852956 1241.630752,371.154933 1235.571490,376.824988 1250.671483,389.790799"/>
    <poly id="414814348" type="building.yes" color="255,230,230" fill="1" layer="-1.00" shape="1204.873613,381.317536 1223.940159,366.249411 1211.609756,353.158512 1192.955739,370.035626 1204.873613,381.317536"/>
    <poly id="414814349" type="building.yes" color="255,230,230" fill="1" layer="-1.00" shape="1197.384074,384.822025 1204.873613,381.317536 1192.955739,370.035626 1188.424034,374.741133 1197.384074,384.822025"/>
    <poly id="414814350" type="building.yes" color="255,230,230" fill="1" layer="-1.00" shape="1280.688312,409.420153 1277.030410,398.439197 1266.810609,402.913841 1269.019236,409.995919 1280.688312,409.420153"/>
    <poly id="44794009" type="building.yes" color="255,230,230" fill="1" layer="-1.00" shape="1155.042394,262.939669 1156.376445,265.636217 1158.522788,267.751614 1161.192850,269.034854 1164.237120,269.404745 1167.187194,268.750551 1169.754736,267.176720 1175.037788,270.030701 1191.131339,270.156321 1204.124230,266.878327 1209.824749,219.390046 1204.302180,212.687219 1205.690067,203.166380 1184.926395,199.489936 1176.601516,202.375426 1171.474427,213.587566 1164.572922,227.358156 1158.860370,248.309535 1159.082290,252.557833 1156.809684,254.471682 1155.287682,257.024825 1154.665044,259.965200 1155.042394,262.939669"/>
    <poly id="44794009#1" type="shop.mall" color="237,199,255" fill="1" layer="-1.00" shape="1155.042394,262.939669 1156.376445,265.636217 1158.522788,267.751614 1161.192850,269.034854 1164.237120,269.404745 1167.187194,268.750551 1169.754736,267.176720 1175.037788,270.030701 1191.131339,270.156321 1204.124230,266.878327 1209.824749,219.390046 1204.302180,212.687219 1205.690067,203.166380 1184.926395,199.489936 1176.601516,202.375426 1171.474427,213.587566 1164.572922,227.358156 1158.860370,248.309535 1159.082290,252.557833 1156.809684,254.471682 1155.287682,257.024825 1154.665044,259.965200 1155.042394,262.939669"/>
    <poly id="44794016" type="building.yes" color="255,230,230" fill="1" layer="-1.00" shape="1210.744401,271.562550 1215.383189,226.726851 1233.782250,231.193204 1244.754455,244.475049 1265.872027,248.115379 1285.047633,277.314708 1259.869686,293.719467 1255.737392,296.412494 1240.881151,275.399096 1233.153389,277.920585 1210.744401,271.562550"/>
    <poly id="44794016#1" type="shop.mall" color="237,199,255" fill="1" layer="-1.00" shape="1210.744401,271.562550 1215.383189,226.726851 1233.782250,231.193204 1244.754455,244.475049 1265.872027,248.115379 1285.047633,277.314708 1259.869686,293.719467 1255.737392,296.412494 1240.881151,275.399096 1233.153389,277.920585 1210.744401,271.562550"/>
    <poly id="48658198" type="amenity.school" color="237,199,199" fill="1" layer="-2.00" shape="1012.558601,591.923539 1026.956439,573.948536 1043.051501,585.326147 1063.554596,595.905339 1047.884197,615.095116 1012.558601,591.923539"/>
    <poly id="48658200" type="amenity.marketplace" color="237,199,199" fill="1" layer="-1.00" shape="1141.080117,350.470697 1134.711051,335.228744 1158.013655,335.997632 1145.837776,350.568945 1141.080117,350.470697"/>
    <poly id="48658200#1" type="tourism.attraction" color="207,245,201" fill="1" layer="-2.00" shape="1141.080117,350.470697 1134.711051,335.228744 1158.013655,335.997632 1145.837776,350.568945 1141.080117,350.470697"/>
    <poly id="49516102" type="building.church" color="255,230,230" fill="1" layer="-1.00" shape="1171.668595,452.799559 1166.241859,442.666627 1176.909110,437.013596 1175.336711,434.078297 1187.877123,427.424207 1189.078705,429.662297 1191.019855,428.629466 1196.970444,439.751954 1192.994415,441.870995 1194.663328,444.997352 1183.059505,451.150893 1181.229122,447.732023 1171.668595,452.799559"/>
    <poly id="498861870" type="amenity.place_of_worship" color="237,199,199" fill="1" layer="-1.00" shape="1217.142603,484.114048 1219.126695,480.116416 1215.177135,478.159471 1219.215626,470.032528 1223.173596,471.989669 1227.308897,463.676122 1242.218009,471.039177 1232.043276,491.476890 1217.142603,484.114048"/>
    <poly id="498861870#1" type="building.mosque" color="255,230,230" fill="1" layer="-1.00" shape="1217.142603,484.114048 1219.126695,480.116416 1215.177135,478.159471 1219.215626,470.032528 1223.173596,471.989669 1227.308897,463.676122 1242.218009,471.039177 1232.043276,491.476890 1217.142603,484.114048"/>
    <poly id="498861871" type="amenity.place_of_worship" color="237,199,199" fill="1" layer="-1.00" shape="1239.795097,205.239137 1256.663779,220.667126 1268.376654,207.962555 1251.507964,192.534539 1239.795097,205.239137"/>
    <poly id="498861871#1" type="building.mosque" color="255,230,230" fill="1" layer="-1.00" shape="1239.795097,205.239137 1256.663779,220.667126 1268.376654,207.962555 1251.507964,192.534539 1239.795097,205.239137"/>
    <poly id="498861872" type="amenity.place_of_worship" color="237,199,199" fill="1" layer="-1.00" shape="1231.591999,202.462362 1260.090466,228.543653 1273.441999,214.066200 1270.839243,211.684790 1290.022129,190.121390 1266.646633,168.734253 1247.537885,190.366065 1244.935111,187.984665 1231.591999,202.462362"/>
    <poly id="498861872#1" type="building.mosque" color="255,230,230" fill="1" layer="-1.00" shape="1231.591999,202.462362 1260.090466,228.543653 1273.441999,214.066200 1270.839243,211.684790 1290.022129,190.121390 1266.646633,168.734253 1247.537885,190.366065 1244.935111,187.984665 1231.591999,202.462362"/>
    <poly id="580451570" type="building.yes" color="255,230,230" fill="1" layer="-1.00" shape="837.570196,197.732882 831.562323,198.605860 826.632644,199.403608 823.406000,216.146824 841.302986,213.913754 837.570196,197.732882"/>
    <poly id="580451571" type="building.yes" color="255,230,230" fill="1" layer="-1.00" shape="826.632644,199.403608 818.312503,199.157201 815.785575,218.026956 822.763880,218.475843 823.406000,216.146824 826.632644,199.403608"/>
    <poly id="580451572" type="building.yes" color="255,230,230" fill="1" layer="-1.00" shape="818.312503,199.157201 810.967903,198.177850 807.923688,219.801587 815.390019,220.972562 815.785575,218.026956 818.312503,199.157201"/>
    <poly id="580451573" type="building.yes" color="255,230,230" fill="1" layer="-1.00" shape="807.923688,219.801587 806.862331,224.642466 825.706058,228.062740 826.702475,222.753846 815.390019,220.972562 807.923688,219.801587"/>
    <poly id="580451574" type="building.yes" color="255,230,230" fill="1" layer="-1.00" shape="806.862331,224.642466 804.490018,237.506441 823.477878,240.874478 825.706058,228.062740 806.862331,224.642466"/>
    <poly id="580451575" type="building.yes" color="255,230,230" fill="1" layer="-1.00" shape="804.490018,237.506441 803.252416,244.531516 821.567060,247.917431 822.223701,247.888063 823.477878,240.874478 804.490018,237.506441"/>
    <poly id="580451576" type="building.yes" color="255,230,230" fill="1" layer="-1.00" shape="803.252416,244.531516 801.986541,251.322680 820.309829,254.697683 821.567060,247.917431 803.252416,244.531516"/>