<?xml version="1.0" encoding="UTF-8"?>

<!-- generated on 2022-06-11 12:23:31 by Eclipse SUMO duarouter Version 1.12.0
<configuration xmlns:xsi="http://www.w3.org/2001/XMLSchema-instance" xsi:noNamespaceSchemaLocation="http://sumo.dlr.de/xsd/duarouterConfiguration.xsd">

    <input>
        <net-file value="osm.net.xml"/>
        <route-files value="osm.passenger.trips.xml"/>
    </input>

    <output>
        <output-file value="routes.rou.xml"/>
        <alternatives-output value="routes.rou.alt.xml"/>
    </output>

    <time>
        <begin value="0"/>
        <end value="1200"/>
    </time>

    <report>
        <no-warnings value="true"/>
        <ignore-errors value="true"/>
        <no-step-log value="true"/>
    </report>

</configuration>
-->

<routes xmlns:xsi="http://www.w3.org/2001/XMLSchema-instance" xsi:noNamespaceSchemaLocation="http://sumo.dlr.de/xsd/routes_file.xsd">
    <vType id="veh_passenger" maxSpeed="1.85" vClass="passenger"/>
    <vehicle id="veh0" type="veh_passenger" depart="0.00" departLane="best" departSpeed="max">
        <route edges="24804918#0 44793789#1 24807742 24807645#0 -24807752#1 -24807752#0 25543096#13 25543096#14"/>
    </vehicle>
    <vehicle id="veh1" type="veh_passenger" depart="8.00" departLane="best" departSpeed="max">
        <route edges="48656852#0 44793952#0 -49516120 -44796869#0 44796922#0 44796922#1 44796922#2 44796922#3 44793904#0 44793904#1 24807752#0 44793997#0 44793997#1 44793996 24807645#3 -24807655 -229984733#6 -229984733#5 -229984733#4 -229984733#3 -229984733#2 -229984733#1 -229984733#0"/>
    </vehicle>
    <vehicle id="veh3" type="veh_passenger" depart="24.00" departLane="best" departSpeed="max">
        <route edges="-24826429 668160773#4 668160773#5 668160773#7 24826574"/>
    </vehicle>
    <vehicle id="veh4" type="veh_passenger" depart="32.00" departLane="best" departSpeed="max">
        <route edges="24828279#0 24828279#1 24828277#3 24828277#4 24805227 44793952#0 -49516120 -44796869#0 44796924#0 44796924#1 24829850#0 24829850#1 25543096#6 25543096#7 25543096#8"/>
    </vehicle>
    <vehicle id="veh5" type="veh_passenger" depart="40.00" departLane="best" departSpeed="max">
        <route edges="637980525#0 637980525#1 637980525#2 637980525#3 637980525#4 25543097#0 25543097#1 24790521#0 24790521#1 24790521#2 24790521#3 24790602#0 24790602#1 668160771#0 -229747037 -697837882#0 -215555515#2 -215555569#1 -215555569#0 215555571#3 215555584#2 215555575#1 215555575#2"/>
    </vehicle>
    <vehicle id="veh6" type="veh_passenger" depart="48.00" departLane="best" departSpeed="max">
        <route edges="229739446#0 229739446#1 44793792 44793791#0 668160769#1 668160769#2"/>
    </vehicle>
    <vehicle id="veh7" type="veh_passenger" depart="56.00" departLane="best" departSpeed="max">
        <route edges="24828279#0 24828279#1 24828277#3 24828277#4 24828277#5"/>
    </vehicle>
    <vehicle id="veh8" type="veh_passenger" depart="64.00" departLane="best" departSpeed="max">
        <route edges="229739446#0 24807742 24807645#0 -24807752#1 -24807752#0 25543096#13 25543096#14"/>
    </vehicle>
    <vehicle id="veh9" type="veh_passenger" depart="72.00" departLane="best" departSpeed="max">
        <route edges="43960791 -43960791 229748771#0 229748771#1 229741782 24807739 -44796922#3 -44796922#2 -44796922#1 -44796922#0 44796869#0 49516120 44793952#1"/>
    </vehicle>
    <vehicle id="veh10" type="veh_passenger" depart="80.00" departLane="best">
        <route edges="44793935 44793927#2 44793927#4 44796867#0 24807701#0 215555563"/>
    </vehicle>
    <vehicle id="veh11" type="veh_passenger" depart="88.00" departLane="best" departSpeed="max">
        <route edges="48656852#0 49516117#0 49516117#1 49516117#2 24807577#0"/>
    </vehicle>
    <vehicle id="veh12" type="veh_passenger" depart="96.00" departLane="best" departSpeed="max">
        <route edges="-24826574 668160773#8 24805377 229747044#0 229747044#1 24805376#2 215555527"/>
    </vehicle>
    <vehicle id="veh13" type="veh_passenger" depart="104.00" departLane="best" departSpeed="max">
        <route edges="229739446#0 24807742 24807645#0 -24807752#1 -24807752#0 25543096#13 229741782 24807739 -24807633 44796867#0 44796867#1 44796867#2 44796867#3 44796867#4 215555530#0 215555530#1"/>
    </vehicle>
    <vehicle id="veh15" type="veh_passenger" depart="120.00" departLane="best">
        <route edges="668160773#3 668160773#4 668160773#5 668160773#7 668160773#8 24826328#0 24826328#1"/>
    </vehicle>
    <vehicle id="veh16" type="veh_passenger" depart="128.00" departLane="best" departSpeed="max">
        <route edges="668160773#0 668160773#1 668160773#2 24805374#0 24805374#1 215555528 215555557 229984733#5 24803893#0 24803893#1 48656851"/>
    </vehicle>
    <vehicle id="veh17" type="veh_passenger" depart="136.00" departLane="best" departSpeed="max">
        <route edges="48656852#0 44793952#0 -49516120 -44796869#0 44796922#0 44796922#1 44796922#2 44796922#3 44793904#0 44793904#1 24807752#0 44793997#0 44793997#1 44793996 24807645#3 -24807655 -229984733#6 24803893#0 24803893#1 48656851"/>
    </vehicle>
    <vehicle id="veh18" type="veh_passenger" depart="144.00" departLane="best" departSpeed="max">
        <route edges="-43960791 229748771#0 229748771#1 229741782 24807739 -24807633 44793917 49516118#1 -229984706#1 -229984706#0 49516116#3 49516116#4 24807577#0 24828319"/>
    </vehicle>
    <vehicle id="veh19" type="veh_passenger" depart="152.00" departLane="best" departSpeed="max">
        <route edges="229984733#0 229984733#1 229984733#2 229984733#3 229984733#4 -215555557 24805373#2 24805373#3 24805373#4 668160773#1 668160773#2 668160773#3 668160773#4 668160773#5 127195808"/>
    </vehicle>
    <vehicle id="veh20" type="veh_passenger" depart="160.00" departLane="best" departSpeed="max">
        <route edges="-127195808 24805376#0 24805376#1 24805376#2 215555516#1 215555516#2 215555575#0 215555575#1 215555575#2"/>
    </vehicle>
    <vehicle id="veh21" type="veh_passenger" depart="168.00" departLane="best" departSpeed="max">
        <route edges="-24826574 668160773#8 24805377 229747044#0 229747044#1 24805376#2 229747034 229747040 229747036#4 -129534287 24803893#0 24803893#1 48656851"/>
    </vehicle>
    <vehicle id="veh22" type="veh_passenger" depart="176.00" departLane="best" departSpeed="max">
        <route edges="229739446#0 229739446#1 44793792 44793791#0 44793791#1 44793791#3"/>
    </vehicle>
    <vehicle id="veh23" type="veh_passenger" depart="184.00" departLane="best" departSpeed="max">
        <route edges="-24807752#2 -24807752#1 -24807752#0 25543096#13 229741782 24807739 44796922#4 -24807701#1 215555563"/>
    </vehicle>
    <vehicle id="veh24" type="veh_passenger" depart="192.00" departLane="best" departSpeed="max">
        <route edges="-24807752#2 24807645#1 24807645#2 24807645#3 24807645#5 24807645#6 25543096#7 44793970#0 -44793994#1 -44793994#0 24807676#2 44796924#3 866003620#0 -866003620#0"/>
    </vehicle>
    <vehicle id="veh25" type="veh_passenger" depart="200.00" departLane="best" departSpeed="max">
        <route edges="637980525#0 637980525#1 637980525#2 637980525#3 637980525#4 25543097#0 25543097#1 24790521#0 24790521#1 24790521#2 24790521#3 24790602#0 24790602#1 668160771#0 668160771#1 668160771#2 -229984733#8 -229984733#6 24805373#0 24805373#2 24805373#3 24805373#4 668160773#1 668160773#2 668160773#3 24826429"/>
    </vehicle>
    <vehicle id="veh26" type="veh_passenger" depart="208.00" departLane="best" departSpeed="max">
        <route edges="-866003620#1 866003620#1 24826156#0 24826156#1 24826156#2 25543096#2 25543096#3 25543096#4 25543096#5 25543096#6 25543096#7 25543096#8 25543096#9 25543096#10 25543096#11 25543096#12 25543096#13 229741782 24807739 -44796922#3 -44796922#2 -44796922#1 -44796922#0 44796869#0 49516120 44793952#1"/>
    </vehicle>
    <vehicle id="veh27" type="veh_passenger" depart="216.00" departLane="best" departSpeed="max">
        <route edges="-215555541 24790602#0 24790602#1 668160771#0 -229747037 -697837882#0 -215555515#2 -215555569#1 -215555569#0 215555571#3 215555584#2 215555584#3 215555516#4 229747039 24805378#0 24805378#1 -24805377 668160773#10 668160773#11 25543097#0 25543097#1 24804444#0 24804444#1 24804444#2 24804444#3"/>
    </vehicle>
    <vehicle id="veh28" type="veh_passenger" depart="224.00" departLane="best" departSpeed="max">
        <route edges="-48656851 24803893#2 24803893#3 25543096#5 25543096#6 25543096#7 25543096#8 25543096#9 25543096#10 25543096#11 25543096#12 25543096#13 229741782 24807739 -24807633 44796867#0 24807701#0"/>
    </vehicle>
    <vehicle id="veh29" type="veh_passenger" depart="232.00" departLane="best" departSpeed="max">
        <route edges="24804918#0 44793789#1 24807742 24807645#0 -24807752#1 -24807752#0 25543096#13 25543096#14"/>
    </vehicle>
    <vehicle id="veh30" type="veh_passenger" depart="240.00" departLane="best" departSpeed="max">
        <route edges="668160773#0 668160773#1 668160773#2 24805374#0 24805374#1 215555528 215555557 -229984733#4 -229984733#3 -229984733#2"/>
    </vehicle>
    <vehicle id="veh31" type="veh_passenger" depart="248.00" departLane="best" departSpeed="max">
        <route edges="-48656851 48656851"/>
    </vehicle>
    <vehicle id="veh32" type="veh_passenger" depart="256.00" departLane="best">
        <route edges="-866003620#0 866003620#0 866003620#1 24826156#0 24826156#1 24826156#2 25543096#2 25543096#3 25543096#4 25543096#5 25543096#6 25543096#7 25543096#8 25543096#9 25543096#10 25543096#11 25543096#12 24807752#0 44793997#0 44793997#1 44793996 24807645#3 -24807655 -229984733#6 24803893#0 24803893#1 24803893#2 24803893#3"/>
    </vehicle>
    <vehicle id="veh33" type="veh_passenger" depart="264.00" departLane="best" departSpeed="max">
        <route edges="637980525#0 637980525#1 637980525#2 637980525#3 637980525#4 25543097#0 25543097#1 24790521#0 24790521#1 24790521#2 24790521#3 24790602#0 24790602#1 668160771#0 -229747037 -697837882#0 -215555515#2 -215555569#1 -215555569#0 215555571#3 215555584#2 215555584#3 215555516#4 229747039 24805378#0 24805378#1 -24805377 668160773#10"/>
    </vehicle>
    <vehicle id="veh35" type="veh_passenger" depart="280.00" departLane="best" departSpeed="max">
        <route edges="668160773#0 668160773#1 668160773#2 668160773#3 24826429"/>
    </vehicle>
    <vehicle id="veh36" type="veh_passenger" depart="288.00" departLane="best" departSpeed="max">
        <route edges="229739446#0 229739446#1 44793792 44793791#0 44793791#1 44793791#3"/>
    </vehicle>
    <vehicle id="veh37" type="veh_passenger" depart="296.00" departLane="best" departSpeed="max">
        <route edges="127195809 24805374#0 24805374#1 215555528 215555557 229984733#5 24803893#0 24803893#1 48656851"/>
    </vehicle>
    <vehicle id="veh38" type="veh_passenger" depart="304.00" departLane="best" departSpeed="max">
        <route edges="-215555541 24790602#0 24790602#1 668160771#0 -229747037 -697837882#0 -215555515#2 -215555569#1 -215555569#0 215555571#3 215555584#2 215555584#3 215555516#4 229747039 24805378#0 24805378#1 -24805377 668160773#10 668160773#11 25543097#0 25543097#1 24790521#0 24790521#1 24790521#2 198806099"/>
    </vehicle>
    <vehicle id="veh39" type="veh_passenger" depart="312.00" departLane="best" departSpeed="max">
        <route edges="229739460#0 229739460#1 24804868#3 668160769#0 668160769#1 44793789#0 44793789#1 24807742 24807645#0 -24807752#1 -24807752#0 25543096#13 25543096#14"/>
    </vehicle>
    <vehicle id="veh40" type="veh_passenger" depart="320.00" departLane="best">
        <route edges="215555524#1 24807594#1 49516116#3 49516116#4 49516108#0 49516108#1"/>
    </vehicle>
    <vehicle id="veh42" type="veh_passenger" depart="336.00" departLane="best" departSpeed="max">
        <route edges="-24826429 668160773#4 668160773#5 668160773#7 668160773#8 668160773#10 744174477#0 229998116#2"/>
    </vehicle>
    <vehicle id="veh43" type="veh_passenger" depart="344.00" departLane="best">
        <route edges="697837884#0 697837884#1 215555534 -215555515#2 -215555569#1 -215555569#0 215555571#3 215555584#2 215555584#3 215555516#4 229747039 24805378#0 24805378#1 -24805377 668160773#10 668160773#11"/>
    </vehicle>
    <vehicle id="veh44" type="veh_passenger" depart="352.00" departLane="best">
        <route edges="44793997#2 44793997#3 24829856 25543096#9 25543096#10 25543096#11 25543096#12 25543096#13 229741782 24807739 -44796922#3 -44796922#2 -44796922#1 -44796922#0 44796869#0 49516120 -44793952#0 24805161#0 24805161#1 24805161#2 49516098#0 49516098#1"/>
    </vehicle>
    <vehicle id="veh46" type="veh_passenger" depart="368.00" departLane="best" departSpeed="max">
        <route edges="24828279#0 24828279#1 24828277#3 24828277#4 24805227 49516117#0 44793927#0 44793927#2 44793927#4 44796867#0 24807701#0 215555563"/>
    </vehicle>
    <vehicle id="veh47" type="veh_passenger" depart="376.00" departLane="best" departSpeed="max">
        <route edges="-24826574 24826574"/>
    </vehicle>
    <vehicle id="veh48" type="veh_passenger" depart="384.00" departLane="best" departSpeed="max">
        <route edges="229984733#0 229984733#1 229984733#2 229984733#3 229984733#4 -215555557 24805373#2 24805373#3 -229747043#1 -229747043#0 215555536#2"/>
    </vehicle>
    <vehicle id="veh49" type="veh_passenger" depart="392.00" departLane="best" departSpeed="max">
        <route edges="229984733#0 229984733#1 229984733#2 229984733#3 229984733#4 229984733#5 215555584#0 229747036#2 215555532 -215555516#1 215555527"/>
    </vehicle>
    <vehicle id="veh50" type="veh_passenger" depart="400.00" departLane="best">
        <route edges="24826156#2 25543096#2 25543096#3 25543096#4 25543096#5 25543096#6 25543096#7 25543096#8 25543096#9 25543096#10 25543096#11 25543096#12 24807752#0 44793997#0 44793997#1 44793996 24807645#3 -24807655 -229984733#6 24803893#0 24803893#1 48656851"/>
    </vehicle>
    <vehicle id="veh51" type="veh_passenger" depart="408.00" departLane="best" departSpeed="max">
        <route edges="43960791 -43960791 229748770 24807645#0 24807645#1 24807645#2 24807645#3 -24803884 -229739446#4 -229739446#3 -229739446#2 44793792 44793791#0 668160769#1 668160769#2"/>
    </vehicle>
    <vehicle id="veh52" type="veh_passenger" depart="416.00" departLane="best" departSpeed="max">
        <route edges="24828279#0 24828279#1 24828277#3 24828277#4 24805227 24805161#0 24805161#1 24805161#2 49516098#0 49516098#1"/>
    </vehicle>
    <vehicle id="veh53" type="veh_passenger" depart="424.00" departLane="best" departSpeed="max">
        <route edges="-44793952#1 -44793952#0 24805161#0 24805161#1 24805161#2 49516098#0 49516100"/>
    </vehicle>
    <vehicle id="veh54" type="veh_passenger" depart="432.00" departLane="best" departSpeed="max">
        <route edges="43960791 -43960791 229748770 24807645#0 24807645#1 24807645#2 24807645#3 -24807655 -229984733#6 24803893#0 24803893#1 48656851"/>
    </vehicle>
    <vehicle id="veh55" type="veh_passenger" depart="440.00" departLane="best" departSpeed="max">
        <route edges="-44793952#1 -49516120 -44796869#0 44796922#0 44796922#1 44796922#2 44796922#3 44793904#0 44793904#1 24807752#0 44793997#0 44793997#1 44793996 24807645#3 -24807655 -229984733#6 24803893#0 24803893#1 48656851"/>
    </vehicle>
    <vehicle id="veh56" type="veh_passenger" depart="448.00" departLane="best">
        <route edges="229998116#1 229998116#2"/>
    </vehicle>
    <vehicle id="veh57" type="veh_passenger" depart="456.00" departLane="best" departSpeed="max">
        <route edges="24804918#0 44793789#1 24807742 24807645#0 -24807752#1 -24807752#0 25543096#13 229741782 24807739 44796922#4 -24807701#1 215555563"/>
    </vehicle>
    <vehicle id="veh59" type="veh_passenger" depart="472.00" departLane="best" departSpeed="max">
        <route edges="24804918#0 44793789#1 24807742 24807645#0 -24807752#1 -24807752#0 25543096#13 25543096#14"/>
    </vehicle>
    <vehicle id="veh60" type="veh_passenger" depart="480.00" departLane="best" departSpeed="max">
        <route edges="-44796867#5 -44796867#4 215555524#0 229741788#1 49516116#2 229984706#0 229984706#1 229984706#2 -229984706#2"/>
    </vehicle>
    <vehicle id="veh61" type="veh_passenger" depart="488.00" departLane="best" departSpeed="max">
        <route edges="-43960791 229748771#0 229748771#1 229741782 24807739 44796922#4 44796922#5 44796922#6"/>
    </vehicle>
    <vehicle id="veh62" type="veh_passenger" depart="496.00" departLane="best" departSpeed="max">
        <route edges="24804918#0 44793789#1 24807742 24807645#0 -24807752#1 -24807752#0 25543096#13 229741782 24807739 44796922#4 -24807701#1 215555563"/>
    </vehicle>
    <vehicle id="veh63" type="veh_passenger" depart="504.00" departLane="best" departSpeed="max">
        <route edges="-44796922#6 -44796922#5 -24807701#1 215555563"/>
    </vehicle>
    <vehicle id="veh64" type="veh_passenger" depart="512.00" departLane="best" departSpeed="max">
        <route edges="48656852#0 49516117#0 49516117#1 49516117#2 24807577#0 24807577#1 24828277#0 24828277#1 24828277#2 24828277#3 24828277#4 24828277#5"/>
    </vehicle>
    <vehicle id="veh65" type="veh_passenger" depart="520.00" departLane="best" departSpeed="max">
        <route edges="-48656851 24803893#2 24807652#0 24807652#1 44794007 -24829824 -24807662#2 -24807662#1 -24807662#0 229984733#1 229984733#2 229984733#3 229984733#4 -215555557 24805373#2 24805373#3 24805373#4 668160773#1 668160773#2 668160773#3 24826429"/>
    </vehicle>
    <vehicle id="veh66" type="veh_passenger" depart="528.00" departLane="best" departSpeed="max">
        <route edges="24803677#0 24803677#1 24803677#2 -24807662#3 -24807662#2 -24807662#1 -24807662#0 24807662#0"/>
    </vehicle>
    <vehicle id="veh67" type="veh_passenger" depart="536.00" departLane="best" departSpeed="max">
        <route edges="-866003620#1 866003620#1 24826156#0 24826156#1 24826156#2 25543096#2 25543096#3 25543096#4 25543096#5 25543096#6 25543096#7 25543096#8 25543096#9 25543096#10 25543096#11 25543096#12 25543096#13 229741782 24807739 -44796922#3 -44796922#2 -44796922#1 -44796922#0 44796869#0 49516120 -44793952#0 24805161#0 24805161#1 24805161#2 49516098#0 49516098#1"/>
    </vehicle>
    <vehicle id="veh68" type="veh_passenger" depart="544.00" departLane="best" departSpeed="max">
        <route edges="-24807752#2 24807645#1 24807645#2 24807645#3 -24803884 -229739446#4 -229739446#3 -229739446#2 -229739446#1 -229739446#0"/>
    </vehicle>
    <vehicle id="veh69" type="veh_passenger" depart="552.00" departLane="best" departSpeed="max">
        <route edges="-24807752#2 -24807752#1 -24807752#0 25543096#13 25543096#14"/>
    </vehicle>
    <vehicle id="veh70" type="veh_passenger" depart="560.00" departLane="best" departSpeed="max">
        <route edges="127195809 668160773#3 668160773#4 668160773#5 24805376#0 24805376#1 24805376#2 215555527"/>
    </vehicle>
    <vehicle id="veh71" type="veh_passenger" depart="568.00" departLane="best" departSpeed="max">
        <route edges="24803677#0 24803677#1 24803677#2 -24807662#3 -24807662#2 -24807662#1 -24807662#0 229984733#1 229984733#2 229984733#3 229984733#4 -215555557"/>
    </vehicle>
    <vehicle id="veh72" type="veh_passenger" depart="576.00" departLane="best">
        <route edges="24807577#1 24828277#0 24828277#1 24828277#2 24828277#3 24828277#4 24805227 44793952#0 44793952#1"/>
    </vehicle>
    <vehicle id="veh73" type="veh_passenger" depart="584.00" departLane="best" departSpeed="max">
        <route edges="127195809 24805374#0 24805374#1 24805374#2 229747040 -229747040"/>
    </vehicle>
    <vehicle id="veh74" type="veh_passenger" depart="592.00" departLane="best" departSpeed="max">
        <route edges="48656852#0 49516117#0 49516117#1 49516117#2 24807577#0 24807577#1 24828277#0 24828277#1 24828277#2 24828277#3 24828277#4 24828277#5"/>
    </vehicle>
    <vehicle id="veh75" type="veh_passenger" depart="600.00" departLane="best" departSpeed="max">
        <route edges="-866003620#1 866003620#1 24826156#0 24826156#1 24826156#2 25543096#2 25543096#3 25543096#4 25543096#5 25543096#6 25543096#7 25543096#8 25543096#9 25543096#10 25543096#11 25543096#12 24807752#0 44793997#0 44793997#1 44793996 24807645#3 -24807655 -215555555 229747036#1 229747036#2 215555532 -215555516#1 215555527"/>
    </vehicle>
    <vehicle id="veh76" type="veh_passenger" depart="608.00" departLane="best" departSpeed="max">
        <route edges="-215555541 215555541"/>
    </vehicle>
    <vehicle id="veh77" type="veh_passenger" depart="616.00" departLane="best" departSpeed="max">
        <route edges="-24826574 668160773#8 24805377 229747044#0 229747044#1 -24805376#1 24826412#0 215555536#0 229747043#0 24805374#1 215555528 24805373#2 215555565"/>
    </vehicle>
    <vehicle id="veh78" type="veh_passenger" depart="624.00" departLane="best" departSpeed="max">
        <route edges="-48656851 24803893#2 24803893#3 25543096#5 25543096#6 25543096#7 25543096#8 25543096#9 25543096#10 25543096#11 25543096#12 25543096#13 229741782 24807739 -44796922#3 -44796922#2 -44796922#1 -44796922#0 44796869#0 49516120 -44793952#0 24805161#0 24805161#1 24805161#2 49516098#0 49516098#1"/>
    </vehicle>
    <vehicle id="veh79" type="veh_passenger" depart="632.00" departLane="best" departSpeed="max">
        <route edges="229739460#0 229739460#1 24804868#3 668160769#0 668160769#1 44793789#0 44793789#1 24807742 24807645#0 -24807752#1 -24807752#0 25543096#13 25543096#14"/>
    </vehicle>
    <vehicle id="veh80" type="veh_passenger" depart="640.00" departLane="best" departSpeed="max">
        <route edges="43960791 -43960791 229748771#0 229748771#1 229741782 24807739 -44796922#3 -44796922#2 -44796922#1 -44796922#0 44796869#0 49516120 44793952#1"/>
    </vehicle>
    <vehicle id="veh81" type="veh_passenger" depart="648.00" departLane="best" departSpeed="max">
        <route edges="-44796867#5 -44796867#4 -44796867#3 -44796867#2 -44796867#1 24807701#0 215555563 -215555563"/>
    </vehicle>
    <vehicle id="veh82" type="veh_passenger" depart="656.00" departLane="best" departSpeed="max">
        <route edges="-866003620#1 -866003620#0"/>
    </vehicle>
    <vehicle id="veh83" type="veh_passenger" depart="664.00" departLane="best" departSpeed="max">
        <route edges="-215555575#2 -215555575#1 -215555584#2 -215555584#1 -229747036#1 215555555 229984733#8 -229739446#4 -229739446#3 -229739446#2 -229739446#1 24807742 24807645#0"/>
    </vehicle>
    <vehicle id="veh84" type="veh_passenger" depart="672.00" departLane="best" departSpeed="max">
        <route edges="-198806099 24790521#3 24790602#0 -24804953 24804868#3 668160769#0 44793791#1 229739461#1"/>
    </vehicle>
    <vehicle id="veh85" type="veh_passenger" depart="680.00" departLane="best" departSpeed="max">
        <route edges="-24807752#2 24807645#1 24807645#2 24807645#3 -24803884 215555571#0 215555571#1 215555571#2 215555571#3 215555584#2 215555575#1 215555575#2"/>
    </vehicle>
    <vehicle id="veh86" type="veh_passenger" depart="688.00" departLane="best">
        <route edges="24807596#0 -24807596#0 44793927#4 44796867#0 24807701#0 24807701#1 44796922#5 44796922#6"/>
    </vehicle>
    <vehicle id="veh87" type="veh_passenger" depart="696.00" departLane="best" departSpeed="max">
        <route edges="-24826574 668160773#8 24805377 229747044#0 229747044#1 24805376#2 229747034 229747040 229747036#4 -129534287 -229984733#5 -229984733#4 -229984733#3 -229984733#2 -229984733#1 -229984733#0"/>
    </vehicle>
    <vehicle id="veh88" type="veh_passenger" depart="704.00" departLane="best" departSpeed="max">
        <route edges="-127195808 668160773#7 668160773#8 24826328#0 24826328#1"/>
    </vehicle>
    <vehicle id="veh89" type="veh_passenger" depart="712.00" departLane="best" departSpeed="max">
        <route edges="-127195808 127195808"/>
    </vehicle>
    <vehicle id="veh90" type="veh_passenger" depart="720.00" departLane="best" departSpeed="max">
        <route edges="-215555563 24807701#1 -44796922#4 44793904#0 44793904#1 25543096#13 25543096#14"/>
    </vehicle>
    <vehicle id="veh91" type="veh_passenger" depart="728.00" departLane="best" departSpeed="max">
        <route edges="-215555563 24807701#1 -44796922#4 44793904#0 44793904#1 24807752#0 44793997#0 44793997#1 44793996 24807645#3 -24803884 -229739446#4 -229739446#3 -229739446#2 -229739446#1 -229739446#0"/>
    </vehicle>
    <vehicle id="veh92" type="veh_passenger" depart="736.00" departLane="best" departSpeed="max">
        <route edges="-43960791 229748771#0 229748771#1 25543096#14"/>
    </vehicle>
    <vehicle id="veh93" type="veh_passenger" depart="744.00" departLane="best" departSpeed="max">
        <route edges="637980525#0 637980525#1 637980525#2 637980525#3 229998116#2"/>
    </vehicle>
    <vehicle id="veh94" type="veh_passenger" depart="752.00" departLane="best" departSpeed="max">
        <route edges="-215555563 -24807701#0 -44796867#0 -44793927#4 24807690 -44796922#2 -44796922#1 -44796922#0 44796869#0 49516120 44793952#1"/>
    </vehicle>
    <vehicle id="veh95" type="veh_passenger" depart="760.00" departLane="best" departSpeed="max">
        <route edges="127195809 24805374#0 24805374#1 24805374#2 229747040 -229747036#3 215555532 215555516#2 215555575#0 215555575#1 215555575#2"/>
    </vehicle>
    <vehicle id="veh96" type="veh_passenger" depart="768.00" departLane="best" departSpeed="max">
        <route edges="43960791 -43960791 229748771#0 229748771#1 229741782 24807739 44796922#4 44796922#5 44796922#6"/>
    </vehicle>
    <vehicle id="veh97" type="veh_passenger" depart="776.00" departLane="best" departSpeed="max">
        <route edges="-215555563 -24807701#0 44796867#1 24807598#0 24807598#2 -229984706#0 49516116#3 49516116#4 49516108#0 49516108#1"/>
    </vehicle>
    <vehicle id="veh98" type="veh_passenger" depart="784.00" departLane="best" departSpeed="max">
        <route edges="24804868#0 24804953 24790602#1 668160771#0 -229747037 -697837882#0 -215555515#2 -215555569#1 -215555569#0 215555571#3 215555584#2 215555584#3 215555516#4 229747039 24805378#0 24805378#1 -24805377 668160773#10 668160773#11 25543097#0 25543097#1 24804444#0 24804444#1 24804444#2 24804444#3"/>
    </vehicle>
    <vehicle id="veh99" type="veh_passenger" depart="792.00" departLane="best" departSpeed="max">
        <route edges="229739446#0 24807742 24807645#0 24807752#2"/>
    </vehicle>
    <vehicle id="veh100" type="veh_passenger" depart="800.00" departLane="best" departSpeed="max">
        <route edges="-24826574 668160773#8 24805377 229747044#0 229747044#1 24805376#2 229747034 229747040 229747036#4 -129534287 24803893#0 24803893#1 48656851"/>
    </vehicle>
    <vehicle id="veh101" type="veh_passenger" depart="808.00" departLane="best">
        <route edges="44793998 44793997#3 24829856 25543096#9 25543096#10 25543096#11 25543096#12 24807752#0 44793997#0 44793997#1 44793996 24807645#3 -24807655 -215555555 229747036#1 229747036#2 215555532 -215555516#1 215555527"/>
    </vehicle>
    <vehicle id="veh102" type="veh_passenger" depart="816.00" departLane="best" departSpeed="max">
        <route edges="-866003620#1 866003620#1 24826156#0 24826156#1 24826156#2 25543096#2 25543096#3 25543096#4 25543096#5 25543096#6 25543096#7 25543096#8 25543096#9 25543096#10 25543096#11 25543096#12 25543096#13 229741782 24807739 -24807633 44793917 49516118#1 -229984706#1 -229984706#0 49516116#3 49516116#4 24807577#0 24807577#1 24828277#0 24828277#1 24828277#2 24828277#3 24828277#4"/>
    </vehicle>
    <vehicle id="veh103" type="veh_passenger" depart="824.00" departLane="best" departSpeed="max">
        <route edges="-44796867#5 -44796867#4 -44796867#3 -44796867#2 -44796867#1 -44796867#0 24807633 44793904#0 44793904#1 24807752#0 44793997#0 44793997#1 44793996 24807645#3 -24803884 -229739446#4 -229739446#3 -229739446#2 -229739446#1 -229739446#0"/>
    </vehicle>
    <vehicle id="veh104" type="veh_passenger" depart="832.00" departLane="best" departSpeed="max">
        <route edges="-24807752#2 -24807752#1 -24807752#0 25543096#13 229741782 24807739 -24807633 44796867#0 44796867#1 44796867#2 44796867#3 44796867#4 44796867#5"/>
    </vehicle>
    <vehicle id="veh105" type="veh_passenger" depart="840.00" departLane="best" departSpeed="max">
        <route edges="-44793952#1 -44793952#0 24805161#0 24805161#1 24805161#2 49516098#0 49516098#1"/>
    </vehicle>
    <vehicle id="veh106" type="veh_passenger" depart="848.00" departLane="best" departSpeed="max">
        <route edges="24804868#0 24804953 24790602#1 668160771#0 -229747037 -697837882#0 -215555515#2 -215555569#1 -215555569#0 215555571#3 215555584#2 215555584#3 215555516#4 229747039 24805378#0 24805378#1 -24805377 668160773#10 668160773#11 25543097#0 25543097#1 24790521#0 24790521#1 24790521#2 24790521#3 215555541"/>
    </vehicle>
    <vehicle id="veh107" type="veh_passenger" depart="856.00" departLane="best">
        <route edges="24805373#0 -215555528 24805374#2 229747040 -229747036#3 215555532 215555516#2 215555575#0 215555575#1 215555575#2"/>
    </vehicle>
    <vehicle id="veh108" type="veh_passenger" depart="864.00" departLane="best" departSpeed="max">
        <route edges="24804868#0 24804953 24790602#1 668160771#0 -229747037 -697837882#0 -215555515#2 -215555569#1 -215555569#0 215555571#3 215555584#2 215555584#3 215555516#4 229747039 24805378#0 24805378#1 -24805377 668160773#10 668160773#11 25543097#0 25543097#1 24790521#0 24790521#1 24790521#2 24790521#3 215555541"/>
    </vehicle>
    <vehicle id="veh109" type="veh_passenger" depart="872.00" departLane="best" departSpeed="max">
        <route edges="-24807752#2 -24807752#1 -24807752#0 25543096#13 229741782 24807739 -24807633 44793917 49516118#1 -49516118#1"/>
    </vehicle>
    <vehicle id="veh110" type="veh_passenger" depart="880.00" departLane="best" departSpeed="max">
        <route edges="43960791 -43960791 229748770 24807645#0 24807752#2"/>
    </vehicle>
    <vehicle id="veh111" type="veh_passenger" depart="888.00" departLane="best">