<?xml version="1.0" encoding="UTF-8"?>

<!-- generated on 2022-01-24 00:07:18 by Eclipse SUMO duarouter Version 1.11.0
<configuration xmlns:xsi="http://www.w3.org/2001/XMLSchema-instance" xsi:noNamespaceSchemaLocation="http://sumo.dlr.de/xsd/duarouterConfiguration.xsd">

    <input>
        <net-file value="osm.net.xml"/>
        <route-files value="osm.passenger.trips.xml"/>
    </input>

    <output>
        <output-file value="osm.passenger.trips.xml.tmp"/>
        <write-trips value="true"/>
    </output>

    <time>
        <begin value="0"/>
        <end value="1200"/>
    </time>

    <report>
        <no-warnings value="true"/>
        <ignore-errors value="true"/>
        <no-step-log value="true"/>
    </report>

</configuration>
-->

<routes xmlns:xsi="http://www.w3.org/2001/XMLSchema-instance" xsi:noNamespaceSchemaLocation="http://sumo.dlr.de/xsd/routes_file.xsd">
    <vType id="veh_passenger" maxSpeed="40.00" vClass="passenger"/>
    <trip id="veh0" type="veh_passenger" depart="0.00" departLane="best" departSpeed="max" from="229739460#0" to="198806390" via="-215555527 -44796922#2"/>
    <trip id="veh1" type="veh_passenger" depart="7.00" departLane="best" departSpeed="max" from="24804868#0" to="-229984733#0" via="24807713#1 48658195#0"/>
    <trip id="veh3" type="veh_passenger" depart="21.00" departLane="best" departSpeed="max" from="-127195808" to="24826328#1" via="-24807752#0 24807659"/>
    <trip id="veh4" type="veh_passenger" depart="28.00" departLane="best" departSpeed="max" from="-24807752#2" to="-229739446#0" via="24805378#0 44793952#0"/>
    <trip id="veh5" type="veh_passenger" depart="35.00" departLane="best" departSpeed="max" from="24807713#0" to="127195808" via="24826156#1 215555530#1"/>
    <trip id="veh6" type="veh_passenger" depart="42.00" departLane="best" departSpeed="max" from="637980525#0" to="-229984733#0" via="215555528 -229747036#2"/>
    <trip id="veh7" type="veh_passenger" depart="49.00" departLane="best" departSpeed="max" from="24828279#0" to="44793791#3" via="24807594#0 44793935"/>
    <trip id="veh8" type="veh_passenger" depart="56.00" departLane="best" departSpeed="max" from="127195809" to="24826429" via="668160773#4 215555575#1"/>
    <trip id="veh9" type="veh_passenger" depart="63.00" departLane="best" departSpeed="max" from="24807713#0" to="24826429" via="24807598#2 44796869#1"/>
    <trip id="veh10" type="veh_passenger" depart="70.00" departLane="best" departSpeed="max" from="24803677#0" to="215555541" via="-215555567 -44793927#2"/>
    <trip id="veh11" type="veh_passenger" depart="77.00" departLane="best" departSpeed="max" from="-215555541" to="215555541" via="-44793952#0 -229747037"/>
    <trip id="veh12" type="veh_passenger" depart="84.00" departLane="best" departSpeed="max" from="229739460#0" to="198806390" via="215555569#1 215555571#1"/>
    <trip id="veh13" type="veh_passenger" depart="91.00" departLane="best" departSpeed="max" from="-24826429" to="24826574" via="637980525#2 24807655"/>
    <trip id="veh14" type="veh_passenger" depart="98.00" departLane="best" departSpeed="max" from="-215555575#2" to="229739461#1" via="24829832#0 -24805435#1"/>
    <trip id="veh15" type="veh_passenger" depart="105.00" departLane="best" departSpeed="max" from="668160773#0" to="25543096#14" via="24807652#0 24805161#1"/>
    <trip id="veh16" type="veh_passenger" depart="112.00" departLane="best" departSpeed="max" from="24807713#0" to="-229739446#0" via="25543097#1 -44793927#4"/>
    <trip id="veh17" type="veh_passenger" depart="119.00" departLane="best" departSpeed="max" from="-43960791" to="49516108#1" via="-44796884 -24829824"/>
    <trip id="veh18" type="veh_passenger" depart="126.00" departLane="best" departSpeed="max" from="24828279#0" to="229998116#2" via="215555515#0 24807662#1"/>
    <trip id="veh20" type="veh_passenger" depart="140.00" departLane="best" departSpeed="max" from="127195809" to="49516098#1" via="-44796869#1 24805376#2"/>
    <trip id="veh22" type="veh_passenger" depart="154.00" departLane="best" departSpeed="max" from="-215555541" to="24828277#5" via="-215555567 -229747043#0"/>
    <trip id="veh23" type="veh_passenger" depart="161.00" departLane="best" departSpeed="max" from="24804918#0" to="229739461#1" via="229747035 -215555584#2"/>
    <trip id="veh24" type="veh_passenger" depart="168.00" departLane="best" departSpeed="max" from="668160773#0" to="48656851" via="24803893#2 668160773#3"/>
    <trip id="veh25" type="veh_passenger" depart="175.00" departLane="best" departSpeed="max" from="-127195808" to="24826328#1" via="24828277#4 24807731"/>
    <trip id="veh26" type="veh_passenger" depart="182.00" departLane="best" departSpeed="max" from="-24826429" to="24804444#3" via="24807652#0 -229747043#0"/>
    <trip id="veh27" type="veh_passenger" depart="189.00" departLane="best" departSpeed="max" from="-44796922#6" to="215555541" via="668160771#1 44796922#3"/>
    <trip id="veh28" type="veh_passenger" depart="196.00" departLane="best" departSpeed="max" from="-866003620#1" to="48656851" via="-24807655 49516116#2"/>
    <trip id="veh30" type="veh_passenger" depart="210.00" departLane="best" departSpeed="max" from="24804868#0" to="24826328#1" via="24804868#3 43960777"/>
    <trip id="veh31" type="veh_passenger" depart="217.00" departLane="best" departSpeed="max" from="-127195808" to="49516100" via="215555516#2 -215555524#0"/>
    <trip id="veh32" type="veh_passenger" depart="224.00" departLane="best" departSpeed="max" from="24828279#0" to="-229747040" via="44793997#0 -697837884#0"/>
    <trip id="veh34" type="veh_passenger" depart="238.00" departLane="best" departSpeed="max" from="-198806099" to="-866003620#0" via="25543096#5 25543096#7"/>
    <trip id="veh35" type="veh_passenger" depart="245.00" departLane="best" departSpeed="max" from="-48656851" to="49516098#1" via="24804918#3 -44796872"/>
    <trip id="veh36" type="veh_passenger" depart="252.00" departLane="best" departSpeed="max" from="-44796922#6" to="44793791#3" via="-24829832#0 24804868#3"/>
    <trip id="veh37" type="veh_passenger" depart="259.00" departLane="best" departSpeed="max" from="-24807752#2" to="24828319" via="129534287 744174477#0"/>
    <trip id="veh39" type="veh_passenger" depart="273.00" departLane="best" departSpeed="max" from="-43960791" to="198806390" via="24805377 -44793927#4"/>
    <trip id="veh40" type="veh_passenger" depart="280.00" departLane="best" departSpeed="max" from="-198806099" to="49516100" via="24807645#3 -44793927#4"/>
    <trip id="veh41" type="veh_passenger" depart="287.00" departLane="best" departSpeed="max" from="24828279#0" to="24828319" via="-229739446#2 -44793994#1"/>
    <trip id="veh43" type="veh_passenger" depart="301.00" departLane="best" departSpeed="max" from="-48656851" to="198806099" via="44793791#0 44793935"/>
    <trip id="veh44" type="veh_passenger" depart="308.00" departLane="best" departSpeed="max" from="-215555541" to="24807752#2" via="229747036#3 229747036#0"/>
    <trip id="veh45" type="veh_passenger" depart="315.00" departLane="best" departSpeed="max" from="24804868#0" to="-44793792" via="24807701#1 697837882#1"/>
    <trip id="veh46" type="veh_passenger" depart="322.00" departLane="best" departSpeed="max" from="-44796867#5" to="215555527" via="215555530#0 44796869#1"/>
    <trip id="veh47" type="veh_passenger" depart="329.00" departLane="best" from="-215555584#1" to="215555541" via="229747043#0 229747035"/>
    <trip id="veh48" type="veh_passenger" depart="336.00" departLane="best" departSpeed="max" from="-24826429" to="48656851" via="49516117#1 229747040"/>
    <trip id="veh49" type="veh_passenger" depart="343.00" departLane="best" departSpeed="max" from="127195809" to="44796922#6" via="-215555569#1 866003620#1"/>
    <trip id="veh50" type="veh_passenger" depart="350.00" departLane="best" departSpeed="max" from="668160773#0" to="198806099" via="49516118#1 44796867#1"/>
    <trip id="veh51" type="veh_passenger" depart="357.00" departLane="best" departSpeed="max" from="-48656851" to="-229747040" via="-24829832#0 229739460#1"/>
    <trip id="veh52" type="veh_passenger" depart="364.00" departLane="best" departSpeed="max" from="-44793952#1" to="44796867#5" via="697837882#1 -44796872"/>
    <trip id="veh53" type="veh_passenger" depart="371.00" departLane="best" departSpeed="max" from="-44796922#6" to="668160769#2" via="229747036#0 668160773#1"/>
    <trip id="veh54" type="veh_passenger" depart="378.00" departLane="best" departSpeed="max" from="127195809" to="215555563" via="24828277#3 -24805378#0"/>
    <trip id="veh55" type="veh_passenger" depart="385.00" departLane="best" departSpeed="max" from="668160773#0" to="44793952#1" via="24805374#2 24804917"/>
    <trip id="veh56" type="veh_passenger" depart="392.00" departLane="best" departSpeed="max" from="-198806099" to="48656851" via="24805376#1 24790521#1"/>
    <trip id="veh57" type="veh_passenger" depart="399.00" departLane="best" departSpeed="max" from="-215555575#2" to="198806099" via="668160773#10 -229741785"/>
    <trip id="veh58" type="veh_passenger" depart="406.00" departLane="best" departSpeed="max" from="229739446#0" to="-866003620#0" via="24807713#1 -44793994#0"/>
    <trip id="veh59" type="veh_passenger" depart="413.00" departLane="best" departSpeed="max" from="48656852#0" to="24828277#5" via="-44794007 24805435#0"/>
    <trip id="veh60" type="veh_passenger" depart="420.00" departLane="best" departSpeed="max" from="-44796867#5" to="49516100" via="24805376#1 24803893#0"/>
    <trip id="veh61" type="veh_passenger" depart="427.00" departLane="best" departSpeed="max" from="-24807752#2" to="229998116#2" via="24828277#2 -44793994#1"/>
    <trip id="veh62" type="veh_passenger" depart="434.00" departLane="best" departSpeed="max" from="229984733#0" to="44793952#1" via="-697837882#0 215555515#1"/>
    <trip id="veh63" type="veh_passenger" depart="441.00" departLane="best" departSpeed="max" from="-198806099" to="668160769#2" via="229747044#2 866003620#1"/>
    <trip id="veh64" type="veh_passenger" depart="448.00" departLane="best" departSpeed="max" from="-198806099" to="49516100" via="-24829832#0 -44796872"/>
    <trip id="veh65" type="veh_passenger" depart="455.00" departLane="best" departSpeed="max" from="24828279#0" to="127195808" via="44796922#5 215555571#1"/>
    <trip id="veh66" type="veh_passenger" depart="462.00" departLane="best" departSpeed="max" from="24807713#0" to="668160769#2" via="24826340 24807596#1"/>
    <trip id="veh67" type="veh_passenger" depart="469.00" departLane="best" departSpeed="max" from="229984733#0" to="215555563" via="-215555515#2 44793970#2"/>
    <trip id="veh68" type="veh_passenger" depart="476.00" departLane="best" departSpeed="max" from="229984733#0" to="-866003620#0" via="637980525#3 -229984733#5"/>
    <trip id="veh69" type="veh_passenger" depart="483.00" departLane="best" departSpeed="max" from="-215555541" to="24826574" via="24804953 -44796922#1"/>
    <trip id="veh70" type="veh_passenger" depart="490.00" departLane="best" departSpeed="max" from="24803677#0" to="215555541" via="-24826340 24807645#6"/>
    <trip id="veh71" type="veh_passenger" depart="497.00" departLane="best" departSpeed="max" from="-48656851" to="-229984733#0" via="49516103 44796867#0"/>
    <trip id="veh72" type="veh_passenger" depart="504.00" departLane="best" departSpeed="max" from="-44796922#6" to="44793952#1" via="-44796922#3 -215555515#0"/>
    <trip id="veh73" type="veh_passenger" depart="511.00" departLane="best" departSpeed="max" from="229739460#0" to="24826429" via="-44796869#1 25543096#1"/>
    <trip id="veh74" type="veh_passenger" depart="518.00" departLane="best" departSpeed="max" from="-44796922#6" to="49516098#1" via="-215555516#1 -229739446#4"/>
    <trip id="veh75" type="veh_passenger" depart="525.00" departLane="best" departSpeed="max" from="48656852#0" to="24826574" via="24804918#1 44793997#1"/>
    <trip id="veh76" type="veh_passenger" depart="532.00" departLane="best" departSpeed="max" from="-215555563" to="49516098#1" via="-229984733#2 -697837884#0"/>
    <trip id="veh78" type="veh_passenger" depart="546.00" departLane="best" departSpeed="max" from="-24826429" to="49516098#1" via="-229747038 44793789#0"/>
    <trip id="veh79" type="veh_passenger" depart="553.00" departLane="best" departSpeed="max" from="-44796867#5" to="49516100" via="24807633 -24805378#0"/>
    <trip id="veh80" type="veh_passenger" depart="560.00" departLane="best" departSpeed="max" from="24828279#0" to="49516098#1" via="668160773#5 44793964#0"/>
    <trip id="veh81" type="veh_passenger" depart="567.00" departLane="best" departSpeed="max" from="-127195808" to="49516100" via="24829856 215555524#0"/>
    <trip id="veh82" type="veh_passenger" depart="574.00" departLane="best" departSpeed="max" from="24804918#0" to="215555541" via="44796870 44793964#0"/>
    <trip id="veh83" type="veh_passenger" depart="581.00" departLane="best" departSpeed="max" from="24804918#0" to="48656851" via="-229747042 44796922#2"/>
    <trip id="veh85" type="veh_passenger" depart="595.00" departLane="best" departSpeed="max" from="24804918#0" to="198806099" via="-44793927#2 -215555524#1"/>
    <trip id="veh86" type="veh_passenger" depart="602.00" departLane="best" departSpeed="max" from="-43960791" to="215555541" via="44796870 668160773#2"/>
    <trip id="veh87" type="veh_passenger" depart="609.00" departLane="best" departSpeed="max" from="229739460#0" to="24826328#1" via="229739460#1 697837882#0"/>
    <trip id="veh88" type="veh_passenger" depart="616.00" departLane="best" departSpeed="max" from="637980525#0" to="198806099" via="-229984706#0 668160773#3"/>
    <trip id="veh89" type="veh_passenger" depart="623.00" departLane="best" departSpeed="max" from="668160773#0" to="24804444#3" via="-44796872 -229747042"/>
    <trip id="veh91" type="veh_passenger" depart="637.00" departLane="best" departSpeed="max" from="-44796867#5" to="25543096#14" via="24805374#1 -44796867#3"/>
    <trip id="veh93" type="veh_passenger" depart="651.00" departLane="best" departSpeed="max" from="24804868#0" to="-229984733#0" via="24807701#0 215555569#1"/>
    <trip id="veh94" type="veh_passenger" depart="658.00" departLane="best" departSpeed="max" from="229984733#0" to="48656851" via="215555524#0 215555515#0"/>
    <trip id="veh95" type="veh_passenger" depart="665.00" departLane="best" departSpeed="max" from="24803677#0" to="229998116#2" via="-697837882#0 -697837884#1"/>
    <trip id="veh96" type="veh_passenger" depart="672.00" departLane="best" departSpeed="max" from="-44796867#5" to="24790521#0" via="-49516119 -229984733#2"/>
    <trip id="veh97" type="veh_passenger" depart="679.00" departLane="best" departSpeed="max" from="637980525#0" to="24828277#5" via="24807713#2 49516101"/>
    <trip id="veh98" type="veh_passenger" depart="686.00" departLane="best" departSpeed="max" from="-24826574" to="215555541" via="24804918#2 -129534287"/>
    <trip id="veh99" type="veh_passenger" depart="693.00" departLane="best" departSpeed="max" from="-44796922#6" to="24807752#2" via="24805376#0 24807662#1"/>
    <trip id="veh100" type="veh_passenger" depart="700.00" departLane="best" departSpeed="max" from="-44796922#6" to="49516098#1" via="-24829832#0 229984706#2"/>
    <trip id="veh102" type="veh_passenger" depart="714.00" departLane="best" departSpeed="max" from="229739460#0" to="44793952#1" via="215555528 44793970#2"/>
    <trip id="veh103" type="veh_passenger" depart="721.00" departLane="best" departSpeed="max" from="229984733#0" to="-229739446#0" via="-44793927#0 -24807752#0"/>
    <trip id="veh104" type="veh_passenger" depart="728.00" departLane="best" departSpeed="max" from="-24826429" to="-229984733#0" via="229984714 44796867#1"/>
    <trip id="veh105" type="veh_passenger" depart="735.00" departLane="best" departSpeed="max" from="-44796867#5" to="25543096#14" via="24807645#3 -24807701#0"/>
    <trip id="veh106" type="veh_passenger" depart="742.00" departLane="best" departSpeed="max" from="-48656851" to="-229739446#0" via="-44793995#1 24807662#2"/>
    <trip id="veh107" type="veh_passenger" depart="749.00" departLane="best" departSpeed="max" from="24804868#0" to="24804444#3" via="25543096#9 -229747039"/>
    <trip id="veh108" type="veh_passenger" depart="756.00" departLane="best" departSpeed="max" from="-215555575#2" to="-229747040" via="668160773#1 24803677#3"/>
    <trip id="veh109" type="veh_passenger" depart="763.00" departLane="best" departSpeed="max" from="-24826429" to="44796867#5" via="44796867#1 229747044#2"/>
    <trip id="veh110" type="veh_passenger" depart="770.00" departLane="best" departSpeed="max" from="229984733#0" to="49516108#1" via="697837883 24805435#0"/>
    <trip id="veh112" type="veh_passenger" depart="784.00" departLane="best" departSpeed="max" from="24807713#0" to="44793952#1" via="24804918#2 48658195#2"/>
    <trip id="veh113" type="veh_passenger" depart="791.00" departLane="best" departSpeed="max" from="-48656851" to="24828277#5" via="-44796869#0 -44796867#0"/>
    <trip id="veh114" type="veh_passenger" depart="798.00" departLane="best" departSpeed="max" from="24804918#0" to="215555541" via="24803884 24807645#1"/>
    <trip id="veh115" type="veh_passenger" depart="805.00" departLane="best" departSpeed="max" from="-215555541" to="215555563" via="-49516099 -44796922#1"/>
    <trip id="veh116" type="veh_passenger" depart="812.00" departLane="best" departSpeed="max" from="127195809" to="25543096#14" via="-229984733#8 -44793935"/>
    <trip id="veh117" type="veh_passenger" depart="819.00" departLane="best" departSpeed="max" from="24803677#0" to="24826328#1" via="-215555584#3 229741783"/>
    <trip id="veh118" type="veh_passenger" depart="826.00" departLane="best" departSpeed="max" from="-44796867#5" to="49516100" via="-24826412#1 229747034"/>
    <trip id="veh119" type="veh_passenger" depart="833.00" departLane="best" departSpeed="max" from="229739446#0" to="44793952#1" via="24826156#0 44796867#4"/>
    <trip id="veh120" type="veh_passenger" depart="840.00" departLane="best" departSpeed="max" from="-44793952#1" to="44793952#1" via="-215555515#1 215555555"/>
    <trip id="veh121" type="veh_passenger" depart="847.00" departLane="best" departSpeed="max" from="24828279#0" to="44793952#1" via="668160771#1 229747034"/>
    <trip id="veh122" type="veh_passenger" depart="854.00" departLane="best" departSpeed="max" from="127195809" to="198806390" via="24807577#1 -44793792"/>
    <trip id="veh123" type="veh_passenger" depart="861.00" departLane="best" departSpeed="max" from="-44796922#6" to="25543096#14" via="-215555530#0 215555528"/>
    <trip id="veh124" type="veh_passenger" depart="868.00" departLane="best" departSpeed="max" from="-44796867#5" to="-866003620#0" via="-24807596#0 229984705"/>
    <trip id="veh125" type="veh_passenger" depart="875.00" departLane="best" departSpeed="max" from="229739460#0" to="24826429" via="-215555528 229739446#2"/>
    <trip id="veh126" type="veh_passenger" depart="882.00" departLane="best" departSpeed="max" from="-127195808" to="24807752#2" via="24807652#1 -229984733#6"/>
    <trip id="veh127" type="veh_passenger" depart="889.00" departLane="best" departSpeed="max" from="-198806099" to="215555575#2" via="215555575#1 -24829832#0"/>
    <trip id="veh128" type="veh_passenger" depart="896.00" departLane="best" departSpeed="max" from="24804868#0" to="44796922#6" via="215555575#1 25543096#13"/>
    <trip id="veh129" type="veh_passenger" depart="903.00" departLane="best" departSpeed="max" from="-24826429" to="24826328#1" via="-229741788#0 -215555524#0"/>
    <trip id="veh130" type="veh_passenger" depart="910.00" departLane="best" from="744174477#0" to="44796867#5" via="215555536#2 24807659"/>
    <trip id="veh131" type="veh_passenger" depart="917.00" departLane="best" departSpeed="max" from="229984733#0" to="198806390" via="25543096#2 668160769#1"/>
    <trip id="veh132" type="veh_passenger" depart="924.00" departLane="best" departSpeed="max" from="-127195808" to="24828319" via="-24805377 -229984733#2"/>
    <trip id="veh133" type="veh_passenger" depart="931.00" departLane="best" departSpeed="max" from="127195809" to="44793952#1" via="-43960777 24826156#2"/>
    <trip id="veh134" type="veh_passenger" depart="938.00" departLane="best" departSpeed="max" from="-215555575#2" to="-866003620#0" via="24807594#1 25543096#11"/>
    <trip id="veh135" type="veh_passenger" depart="945.00" departLane="best" departSpeed="max" from="24807713#0" to="-229739446#0" via="668160773#11 -229747042"/>
    <trip id="veh136" type="veh_passenger" depart="952.00" departLane="best" departSpeed="max" from="-43960791" to="229998116#2" via="24807713#2 668160773#1"/>
    <trip id="veh137" type="veh_passenger" depart="959.00" departLane="best" departSpeed="max" from="24803677#0" to="24828277#5" via="-229739446#4 24807752#0"/>
    <trip id="veh138" type="veh_passenger" depart="966.00" departLane="best" departSpeed="max" from="-215555541" to="24826574" via="25543097#0 44796867#1"/>
    <trip id="veh139" type="veh_passenger" depart="973.00" departLane="best" departSpeed="max" from="-215555563" to="215555575#2" via="697837882#1 44793789#1"/>
    <trip id="veh140" type="veh_passenger" depart="980.00" departLane="best" departSpeed="max" from="-44796922#6" to="215555575#2" via="215555571#2 24790521#3"/>
    <trip id="veh141" type="veh_passenger" depart="987.00" departLane="best" departSpeed="max" from="24828279#0" to="49516108#1" via="44793994#1 -229747039"/>
    <trip id="veh142" type="veh_passenger" depart="994.00" departLane="best" departSpeed="max" from="229739460#0" to="24804444#3" via="44793995#1 24826412#0"/>
    <trip id="veh143" type="veh_passenger" depart="1001.00" departLane="best" departSpeed="max" from="24804868#0" to="44796922#6" via="668160773#11 -44796922#0"/>
    <trip id="veh144" type="veh_passenger" depart="1008.00" departLane="best" departSpeed="max" from="127195809" to="44793791#3" via="229984733#3 229747037"/>
    <trip id="veh145" type="veh_passenger" depart="1015.00" departLane="best" departSpeed="max" from="-24826574" to="-229984733#0" via="44796867#2 44793996"/>
    <trip id="veh147" type="veh_passenger" depart="1029.00" departLane="best" departSpeed="max" from="-44793952#1" to="198806099" via="-215555530#0 44796867#2"/>
    <trip id="veh148" type="veh_passenger" depart="1036.00" departLane="best" departSpeed="max" from="-24807752#2" to="49516098#1" via="44793917 215555530#1"/>
    <trip id="veh149" type="veh_passenger" depart="1043.00" departLane="best" departSpeed="max" from="24803677#0" to="49516108#1" via="-44796922#3 -215555516#1"/>
    <trip id="veh150" type="veh_passenger" depart="1050.00" departLane="best" departSpeed="max" from="-215555541" to="44793952#1" via="24828277#4 229984733#5"/>
    <trip id="veh151" type="veh_passenger" depart="1057.00" departLane="best" departSpeed="max" from="24803677#0" to="44796867#5" via="24807652#2 229984733#6"/>
    <trip id="veh152" type="veh_passenger" depart="1064.00" departLane="best" departSpeed="max" from="-215555541" to="215555563" via="-44793917 24807752#1"/>
    <trip id="veh153" type="veh_passenger" depart="1071.00" departLane="best" departSpeed="max" from="229739446#0" to="24804444#3" via="229984706#2 24803893#3"/>
    <trip id="veh154" type="veh_passenger" depart="1078.00" departLane="best" departSpeed="max" from="24804868#0" to="215555541" via="215555524#0 24826328#0"/>
    <trip id="veh155" type="veh_passenger" depart="1085.00" departLane="best" departSpeed="max" from="-24826429" to="-866003620#0" via="-229984706#2 -24807701#0"/>
    <trip id="veh156" type="veh_passenger" depart="1092.00" departLane="best" departSpeed="max" from="127195809" to="198806390" via="25543096#5 -24807662#1"/>
    <trip id="veh157" type="veh_passenger" depart="1099.00" departLane="best" departSpeed="max" from="-48656851" to="24826328#1" via="24829824 668160773#7"/>
    <trip id="veh158" type="veh_passenger" depart="1106.00" departLane="best" departSpeed="max" from="-24826574" to="215555527" via="-229747037 -24807701#0"/>
    <trip id="veh159" type="veh_passenger" depart="1113.00" departLane="best" departSpeed="max" from="-215555575#2" to="215555541" via="-215555516#2 24804444#0"/>
    <trip id="veh160" type="veh_passenger" depart="1120.00" departLane="best" departSpeed="max" from="668160773#0" to="-866003620#0" via="24804953 24826156#1"/>
    <trip id="veh161" type="veh_passenger" depart="1127.00" departLane="best" departSpeed="max" from="24828279#0" to="24826429" via="229984733#6 44796922#2"/>
    <trip id="veh162" type="veh_passenger" depart="1134.00" departLane="best" departSpeed="max" from="-48656851" to="-229747040" via="229747039 -24807662#1"/>
    <trip id="veh163" type="veh_passenger" depart="1141.00" departLane="best" departSpeed="max" from="637980525#0" to="229998116#2" via="229984733#1 44793994#1"/>
    <trip id="veh164" type="veh_passenger" depart="1148.00" departLane="best" departSpeed="max" from="-198806099" to="127195808" via="24807645#2 -215555575#0"/>
    <trip id="veh165" type="veh_passenger" depart="1155.00" departLane="best" departSpeed="max" from="127195809" to="-866003620#0" via="-697837882#1 744174477#0"/>
    <trip id="veh166" type="veh_passenger" depart="1162.00" departLane="best" departSpeed="max" from="24804868#0" to="198806390" via="24807594#1 44793792"/>
    <trip id="veh167" type="veh_passenger" depart="1169.00" departLane="best" departSpeed="max" from="-866003620#1" to="48656851" via="229747043#1 229747040"/>
    <trip id="veh168" type="veh_passenger" depart="1176.00" departLane="best" departSpeed="max" from="668160773#0" to="24826574" via="-697837883 24807633"/>
    <trip id="veh169" type="veh_passenger" depart="1183.00" departLane="best" departSpeed="max" from="24804868#0" to="198806390" via="668160769#0 -24826412#1"/>
    <trip id="veh170" type="veh_passenger" depart="1190.00" departLane="best" departSpeed="max" from="229984733#0" to="-229984733#0" via="-24805378#1 -24807598#2"/>
    <trip id="veh171" type="veh_passenger" depart="1197.00" departLane="best" departSpeed="max" from="-127195808" to="215555563" via="229747043#1 24805378#1"/>
</routes>
