<?xml version="1.0" encoding="UTF-8"?>
<!-- generated on 2021-12-20 18:21:31.425654 by randomTrips.py UNKNOWN
  options: -n osm.net.xml <doubleminus>seed 42 <doubleminus>fringe-factor 1 -p 6.935010 -o osm.pedestrian.trips.xml -e 3600 -r osm.pedestrian.rou.xml <doubleminus>vehicle-class pedestrian <doubleminus>pedestrians <doubleminus>prefix ped <doubleminus>max-distance 2000
-->
<routes xmlns:xsi="http://www.w3.org/2001/XMLSchema-instance" xsi:noNamespaceSchemaLocation="http://sumo.dlr.de/xsd/routes_file.xsd">
    <vType id="ped_pedestrian" vClass="pedestrian"/>
    <person id="ped0" depart="0.00" type="ped_pedestrian">
        <walk from="230931497#4" to="-164215846#0"/>
    </person>
    <person id="ped1" depart="6.94" type="ped_pedestrian">
        <walk from="-42986597" to="-24829269"/>
    </person>
    <person id="ped2" depart="13.87" type="ped_pedestrian">
        <walk from="24829377#7" to="231047289#3"/>
    </person>
    <person id="ped3" depart="20.81" type="ped_pedestrian">
        <walk from="43912688#0" to="-217101413"/>
    </person>
    <person id="ped4" depart="27.74" type="ped_pedestrian">
        <walk from="160726551#3" to="-164215846#1"/>
    </person>
    <person id="ped5" depart="34.68" type="ped_pedestrian">
        <walk from="-24829259#3" to="217101396"/>
    </person>
    <person id="ped6" depart="41.61" type="ped_pedestrian">
        <walk from="-164215846#0" to="-24797309#2"/>
    </person>
    <person id="ped7" depart="48.55" type="ped_pedestrian">
        <walk from="230931498#1" to="217101442#0"/>
    </person>
    <person id="ped8" depart="55.48" type="ped_pedestrian">
        <walk from="-24829259#3" to="230931456#4"/>
    </person>
    <person id="ped9" depart="62.42" type="ped_pedestrian">
        <walk from="42986595#4" to="-160726551#2"/>
    </person>
    <person id="ped10" depart="69.35" type="ped_pedestrian">
        <walk from="42986595#3" to="24829259#0"/>
    </person>
    <person id="ped11" depart="76.29" type="ped_pedestrian">
        <walk from="-43912688#0" to="-230931497#0"/>
    </person>
    <person id="ped12" depart="83.22" type="ped_pedestrian">
        <walk from="43912761#1" to="-43912666#2"/>
    </person>
    <person id="ped13" depart="90.16" type="ped_pedestrian">
        <walk from="-217101419" to="-217101423"/>
    </person>
    <person id="ped14" depart="97.09" type="ped_pedestrian">
        <walk from="42986605" to="230931459#1"/>
    </person>
    <person id="ped15" depart="104.03" type="ped_pedestrian">
        <walk from="42986595#4" to="24829377#3"/>
    </person>
    <person id="ped16" depart="110.96" type="ped_pedestrian">
        <walk from="217101423" to="46621730#0"/>
    </person>
    <person id="ped17" depart="117.90" type="ped_pedestrian">
        <walk from="-43912726#0" to="217101442#2"/>
    </person>
    <person id="ped18" depart="124.83" type="ped_pedestrian">
        <walk from="42986601#1" to="230931465"/>
    </person>
    <person id="ped19" depart="131.77" type="ped_pedestrian">
        <walk from="43854633#1" to="217101454"/>
    </person>
    <person id="ped20" depart="138.70" type="ped_pedestrian">
        <walk from="24829259#3" to="-164215847#1"/>
    </person>
    <person id="ped21" depart="145.64" type="ped_pedestrian">
        <walk from="-24829299#0" to="-42986601#0"/>
    </person>
    <person id="ped22" depart="152.57" type="ped_pedestrian">
        <walk from="-217101406" to="-24829299#2"/>
    </person>
    <person id="ped23" depart="159.51" type="ped_pedestrian">
        <walk from="-217101442#0" to="-42986598#0"/>
    </person>
    <person id="ped24" depart="166.44" type="ped_pedestrian">
        <walk from="230931497#4" to="-43912696#3"/>
    </person>
    <person id="ped25" depart="173.38" type="ped_pedestrian">
        <walk from="-43912723" to="-24829229#1"/>
    </person>
    <person id="ped26" depart="180.31" type="ped_pedestrian">
        <walk from="-31773424#1" to="43912726#1"/>
    </person>
    <person id="ped27" depart="187.25" type="ped_pedestrian">
        <walk from="230931498#1" to="230931464#1"/>
    </person>
    <person id="ped28" depart="194.18" type="ped_pedestrian">
        <walk from="-230931497#4" to="24829377#3"/>
    </person>
    <person id="ped29" depart="201.12" type="ped_pedestrian">
        <walk from="-230931497#2" to="-43912726#0"/>
    </person>
    <person id="ped30" depart="208.05" type="ped_pedestrian">
        <walk from="639315109" to="230931497#5"/>
    </person>
    <person id="ped31" depart="214.99" type="ped_pedestrian">
        <walk from="217101444" to="24797309#0"/>
    </person>
    <person id="ped32" depart="221.92" type="ped_pedestrian">
        <walk from="42986604" to="360892721#4"/>
    </person>
    <person id="ped33" depart="228.86" type="ped_pedestrian">
        <walk from="-24829299#1" to="-164215846#2"/>
    </person>
    <person id="ped34" depart="235.79" type="ped_pedestrian">
        <walk from="-42986605" to="-31773424#2"/>
    </person>
    <person id="ped35" depart="242.73" type="ped_pedestrian">
        <walk from="-24829229#1" to="43912733"/>
    </person>
    <person id="ped36" depart="249.66" type="ped_pedestrian">
        <walk from="43912666#0" to="-42986605"/>
    </person>
    <person id="ped37" depart="256.60" type="ped_pedestrian">
        <walk from="230931499" to="-43915485#0"/>
    </person>
    <person id="ped38" depart="263.53" type="ped_pedestrian">
        <walk from="43912696#0" to="164216286"/>
    </person>
    <person id="ped39" depart="270.47" type="ped_pedestrian">
        <walk from="-31773424#1" to="-24829377#6"/>
    </person>
    <person id="ped40" depart="277.40" type="ped_pedestrian">
        <walk from="217101445" to="-24829383"/>
    </person>
    <person id="ped41" depart="284.34" type="ped_pedestrian">
        <walk from="230931456#0" to="43912688#1"/>
    </person>
    <person id="ped42" depart="291.27" type="ped_pedestrian">
        <walk from="-43915485#1" to="-24829259#3"/>
    </person>
    <person id="ped43" depart="298.21" type="ped_pedestrian">
        <walk from="639315111#1" to="217101402#0"/>
    </person>
    <person id="ped44" depart="305.14" type="ped_pedestrian">
        <walk from="-217101419" to="-164216286"/>
    </person>
    <person id="ped45" depart="312.08" type="ped_pedestrian">
        <walk from="-217101442#2" to="230931497#1"/>
    </person>
    <person id="ped46" depart="319.01" type="ped_pedestrian">
        <walk from="42986595#0" to="160726551#3"/>
    </person>
    <person id="ped47" depart="325.95" type="ped_pedestrian">
        <walk from="-217101392" to="-43912726#1"/>
    </person>
    <person id="ped48" depart="332.88" type="ped_pedestrian">
        <walk from="639315111#0" to="217101417"/>
    </person>
    <person id="ped49" depart="339.82" type="ped_pedestrian">
        <walk from="43915485#3" to="43854633#1"/>
    </person>
    <person id="ped50" depart="346.75" type="ped_pedestrian">
        <walk from="-160726551#3" to="24829299#2"/>
    </person>
    <person id="ped51" depart="353.69" type="ped_pedestrian">
        <walk from="24797200" to="217101423"/>
    </person>
    <person id="ped52" depart="360.62" type="ped_pedestrian">
        <walk from="-31773424#1" to="230931497#5"/>
    </person>
    <person id="ped53" depart="367.56" type="ped_pedestrian">
        <walk from="-217101442#2" to="164215846#0"/>
    </person>
    <person id="ped54" depart="374.49" type="ped_pedestrian">
        <walk from="164215847#1" to="43912761#1"/>
    </person>
    <person id="ped55" depart="381.43" type="ped_pedestrian">
        <walk from="43854633#4" to="-24829383"/>
    </person>
    <person id="ped56" depart="388.36" type="ped_pedestrian">
        <walk from="217101392" to="-231047289#0"/>
    </person>
    <person id="ped57" depart="395.30" type="ped_pedestrian">
        <walk from="43912696#0" to="43854633#3"/>
    </person>
    <person id="ped58" depart="402.23" type="ped_pedestrian">
        <walk from="-42986601#2" to="230931497#4"/>
    </person>
    <person id="ped59" depart="409.17" type="ped_pedestrian">
        <walk from="230931464#1" to="-230931459#3"/>
    </person>
    <person id="ped60" depart="416.10" type="ped_pedestrian">
        <walk from="31773424#2" to="217101428"/>
    </person>
    <person id="ped61" depart="423.04" type="ped_pedestrian">
        <walk from="360892721#4" to="217101417"/>
    </person>
    <person id="ped62" depart="429.97" type="ped_pedestrian">
        <walk from="-160726551#1" to="-43854553"/>
    </person>
    <person id="ped63" depart="436.91" type="ped_pedestrian">
        <walk from="-162767856#3" to="43912724"/>
    </person>
    <person id="ped64" depart="443.84" type="ped_pedestrian">
        <walk from="43912666#0" to="42986601#2"/>
    </person>
    <person id="ped65" depart="450.78" type="ped_pedestrian">
        <walk from="-42986602#1" to="-164322006#0"/>
    </person>
    <person id="ped66" depart="457.71" type="ped_pedestrian">
        <walk from="43912666#0" to="43912740"/>
    </person>
    <person id="ped67" depart="464.65" type="ped_pedestrian">
        <walk from="-217101413" to="186353840#0"/>
    </person>
    <person id="ped68" depart="471.58" type="ped_pedestrian">
        <walk from="-217101396" to="31773424#2"/>
    </person>
    <person id="ped69" depart="478.52" type="ped_pedestrian">
        <walk from="360892721#0" to="-217101452#1"/>
    </person>
    <person id="ped70" depart="485.45" type="ped_pedestrian">
        <walk from="164216573" to="217101442#1"/>
    </person>
    <person id="ped71" depart="492.39" type="ped_pedestrian">
        <walk from="-31773424#1" to="43854633#4"/>
    </person>
    <person id="ped72" depart="499.32" type="ped_pedestrian">
        <walk from="162767845#0" to="-24829229#1"/>
    </person>
    <person id="ped73" depart="506.26" type="ped_pedestrian">
        <walk from="217101428" to="24829377#3"/>
    </person>
    <person id="ped74" depart="513.19" type="ped_pedestrian">
        <walk from="-24797309#2" to="-42986604"/>
    </person>
    <person id="ped75" depart="520.13" type="ped_pedestrian">
        <walk from="639315111#0" to="230931498#1"/>
    </person>
    <person id="ped76" depart="527.06" type="ped_pedestrian">
        <walk from="164215846#1" to="217101406"/>
    </person>
    <person id="ped77" depart="534.00" type="ped_pedestrian">
        <walk from="-217101449#0" to="-24829269"/>
    </person>
    <person id="ped78" depart="540.93" type="ped_pedestrian">
        <walk from="-43912688#0" to="230931456#3"/>
    </person>
    <person id="ped79" depart="547.87" type="ped_pedestrian">
        <walk from="-24829299#1" to="-24829259#3"/>
    </person>
    <person id="ped80" depart="554.80" type="ped_pedestrian">
        <walk from="-217101402#0" to="230931497#2"/>
    </person>
    <person id="ped81" depart="561.74" type="ped_pedestrian">
        <walk from="-24829299#1" to="43912691#0"/>
    </person>
    <person id="ped82" depart="568.67" type="ped_pedestrian">
        <walk from="43854633#0" to="-217101402#0"/>
    </person>
    <person id="ped83" depart="575.61" type="ped_pedestrian">
        <walk from="-24829377#2" to="231047289#1"/>
    </person>
    <person id="ped84" depart="582.54" type="ped_pedestrian">
        <walk from="-24829259#0" to="-217101454"/>
    </person>
    <person id="ped85" depart="589.48" type="ped_pedestrian">
        <walk from="43912726#1" to="217101452#1"/>
    </person>
    <person id="ped86" depart="596.41" type="ped_pedestrian">
        <walk from="164216288#2" to="42133039#3"/>
    </person>
    <person id="ped87" depart="603.35" type="ped_pedestrian">
        <walk from="42986595#4" to="-231047289#3"/>
    </person>
    <person id="ped88" depart="610.28" type="ped_pedestrian">
        <walk from="-217101428" to="162767856#1"/>
    </person>
    <person id="ped89" depart="617.22" type="ped_pedestrian">
        <walk from="162767845#0" to="164216288#1"/>
    </person>
    <person id="ped90" depart="624.15" type="ped_pedestrian">
        <walk from="24829377#3" to="231047289#2"/>
    </person>
    <person id="ped91" depart="631.09" type="ped_pedestrian">
        <walk from="46621730#2" to="-217101428"/>
    </person>
    <person id="ped92" depart="638.02" type="ped_pedestrian">
        <walk from="-43915485#1" to="-43912688#0"/>
    </person>
    <person id="ped93" depart="644.96" type="ped_pedestrian">
        <walk from="43854633#1" to="-24829377#7"/>
    </person>
    <person id="ped94" depart="651.89" type="ped_pedestrian">
        <walk from="-231047289#3" to="164215846#3"/>
    </person>
    <person id="ped95" depart="658.83" type="ped_pedestrian">
        <walk from="160726551#3" to="-42986598#0"/>
    </person>
    <person id="ped96" depart="665.76" type="ped_pedestrian">
        <walk from="-24829377#7" to="43912723"/>
    </person>
    <person id="ped97" depart="672.70" type="ped_pedestrian">
        <walk from="164215846#2" to="43854633#1"/>
    </person>
    <person id="ped98" depart="679.63" type="ped_pedestrian">
        <walk from="217101442#1" to="-164216573"/>
    </person>
    <person id="ped99" depart="686.57" type="ped_pedestrian">
        <walk from="639315111#1" to="42986601#3"/>
    </person>
    <person id="ped100" depart="693.50" type="ped_pedestrian">
        <walk from="43915485#3" to="43912724"/>
    </person>
    <person id="ped101" depart="700.44" type="ped_pedestrian">
        <walk from="42986605" to="-230931497#2"/>
    </person>
    <person id="ped102" depart="707.37" type="ped_pedestrian">
        <walk from="186353840#0" to="-24829259#0"/>
    </person>
    <person id="ped103" depart="714.31" type="ped_pedestrian">
        <walk from="-43915485#1" to="-217101390"/>
    </person>
    <person id="ped104" depart="721.24" type="ped_pedestrian">
        <walk from="-43912726#0" to="46621730#3"/>
    </person>
    <person id="ped105" depart="728.18" type="ped_pedestrian">
        <walk from="-31773424#1" to="42133039#3"/>
    </person>
    <person id="ped106" depart="735.11" type="ped_pedestrian">
        <walk from="164215847#1" to="162767845#0"/>
    </person>
    <person id="ped107" depart="742.05" type="ped_pedestrian">
        <walk from="43912761#1" to="639315111#0"/>
    </person>
    <person id="ped108" depart="748.98" type="ped_pedestrian">
        <walk from="217101444" to="24829299#2"/>
    </person>
    <person id="ped109" depart="755.92" type="ped_pedestrian">
        <walk from="-230931459#3" to="-42986601#2"/>
    </person>
    <person id="ped110" depart="762.85" type="ped_pedestrian">
        <walk from="43915485#2" to="230931455#1"/>
    </person>
    <person id="ped111" depart="769.79" type="ped_pedestrian">
        <walk from="217101428" to="24829379"/>
    </person>
    <person id="ped112" depart="776.72" type="ped_pedestrian">
        <walk from="-164322006#0" to="230931456#0"/>
    </person>
    <person id="ped113" depart="783.66" type="ped_pedestrian">
        <walk from="217101392" to="43854553"/>
    </person>
    <person id="ped114" depart="790.59" type="ped_pedestrian">
        <walk from="-230931497#0" to="43915485#0"/>
    </person>
    <person id="ped115" depart="797.53" type="ped_pedestrian">
        <walk from="-217101406" to="-231047289#1"/>
    </person>
    <person id="ped116" depart="804.46" type="ped_pedestrian">
        <walk from="230931457" to="231047289#3"/>
    </person>
    <person id="ped117" depart="811.40" type="ped_pedestrian">
        <walk from="-24829299#2" to="-217101445"/>
    </person>
    <person id="ped118" depart="818.33" type="ped_pedestrian">
        <walk from="43912674" to="-24829377#6"/>
    </person>
    <person id="ped119" depart="825.27" type="ped_pedestrian">
        <walk from="230931457" to="230931465"/>
    </person>
    <person id="ped120" depart="832.20" type="ped_pedestrian">
        <walk from="160726551#3" to="230931456#0"/>
    </person>
    <person id="ped121" depart="839.14" type="ped_pedestrian">
        <walk from="217101407" to="43912726#1"/>
    </person>
    <person id="ped122" depart="846.07" type="ped_pedestrian">
        <walk from="-24829226" to="24829299#1"/>
    </person>
    <person id="ped123" depart="853.01" type="ped_pedestrian">
        <walk from="-24829377#2" to="-43915485#0"/>
    </person>
    <person id="ped124" depart="859.94" type="ped_pedestrian">
        <walk from="231047289#2" to="-42986601#3"/>
    </person>
    <person id="ped125" depart="866.88" type="ped_pedestrian">
        <walk from="-42986605" to="24829381"/>
    </person>
    <person id="ped126" depart="873.81" type="ped_pedestrian">
        <walk from="-217101402#0" to="164216286"/>
    </person>
    <person id="ped127" depart="880.75" type="ped_pedestrian">
        <walk from="639315111#1" to="639315111#0"/>
    </person>
    <person id="ped128" depart="887.68" type="ped_pedestrian">
        <walk from="-217101402#0" to="-24829229#1"/>
    </person>
    <person id="ped129" depart="894.62" type="ped_pedestrian">
        <walk from="-31773424#1" to="43912726#0"/>
    </person>
    <person id="ped130" depart="901.55" type="ped_pedestrian">
        <walk from="43912666#1" to="43912666#0"/>
    </person>
    <person id="ped131" depart="908.49" type="ped_pedestrian">
        <walk from="-43912723" to="-230931497#0"/>
    </person>
    <person id="ped132" depart="915.42" type="ped_pedestrian">
        <walk from="42986601#3" to="24829259#3"/>
    </person>
    <person id="ped133" depart="922.36" type="ped_pedestrian">
        <walk from="230931464#1" to="46621730#3"/>
    </person>
    <person id="ped134" depart="929.29" type="ped_pedestrian">
        <walk from="230931498#2" to="-160726551#3"/>
    </person>
    <person id="ped135" depart="936.23" type="ped_pedestrian">
        <walk from="42986598#0" to="-42986601#3"/>
    </person>
    <person id="ped136" depart="943.16" type="ped_pedestrian">
        <walk from="231047289#0" to="43912730"/>
    </person>
    <person id="ped137" depart="950.10" type="ped_pedestrian">
        <walk from="-217101454" to="-217101444"/>
    </person>
    <person id="ped138" depart="957.03" type="ped_pedestrian">
        <walk from="-217101442#1" to="217101442#2"/>
    </person>
    <person id="ped139" depart="963.97" type="ped_pedestrian">
        <walk from="-42986597" to="230931464#0"/>
    </person>
    <person id="ped140" depart="970.90" type="ped_pedestrian">
        <walk from="24829299#2" to="-24829226"/>
    </person>
    <person id="ped141" depart="977.84" type="ped_pedestrian">
        <walk from="230931497#3" to="-31773424#1"/>
    </person>
    <person id="ped142" depart="984.77" type="ped_pedestrian">
        <walk from="186353840#2" to="43912691#0"/>
    </person>
    <person id="ped143" depart="991.71" type="ped_pedestrian">
        <walk from="42986605" to="-217101419"/>
    </person>
    <person id="ped144" depart="998.64" type="ped_pedestrian">
        <walk from="162767845#0" to="-42986598#0"/>
    </person>
    <person id="ped145" depart="1005.58" type="ped_pedestrian">
        <walk from="-160726551#1" to="360892721#1"/>
    </person>
    <person id="ped146" depart="1012.51" type="ped_pedestrian">
        <walk from="230931497#4" to="-24829383"/>
    </person>
    <person id="ped147" depart="1019.45" type="ped_pedestrian">
        <walk from="24829377#8" to="217101442#2"/>
    </person>
    <person id="ped148" depart="1026.38" type="ped_pedestrian">
        <walk from="162767856#0" to="-160726551#3"/>
    </person>
    <person id="ped149" depart="1033.32" type="ped_pedestrian">
        <walk from="-217101402#1" to="43912666#1"/>
    </person>
    <person id="ped150" depart="1040.25" type="ped_pedestrian">
        <walk from="43912691#0" to="217101442#0"/>
    </person>
    <person id="ped151" depart="1047.19" type="ped_pedestrian">
        <walk from="42986601#3" to="230931456#0"/>
    </person>
    <person id="ped152" depart="1054.12" type="ped_pedestrian">
        <walk from="-230931459#0" to="-217101449#1"/>
    </person>
    <person id="ped153" depart="1061.06" type="ped_pedestrian">
        <walk from="-42986602#1" to="43912688#1"/>
    </person>
    <person id="ped154" depart="1067.99" type="ped_pedestrian">
        <walk from="42986595#1" to="43854633#1"/>
    </person>
    <person id="ped155" depart="1074.93" type="ped_pedestrian">
        <walk from="43912688#1" to="-24829229#1"/>
    </person>
    <person id="ped156" depart="1081.86" type="ped_pedestrian">
        <walk from="-24829377#7" to="-217101442#0"/>
    </person>
    <person id="ped157" depart="1088.80" type="ped_pedestrian">
        <walk from="42133039#0" to="43912666#2"/>
    </person>
    <person id="ped158" depart="1095.73" type="ped_pedestrian">
        <walk from="-43915485#2" to="230931487"/>
    </person>
    <person id="ped159" depart="1102.67" type="ped_pedestrian">
        <walk from="-230931459#3" to="43912724"/>
    </person>
    <person id="ped160" depart="1109.60" type="ped_pedestrian">
        <walk from="43854633#2" to="46621730#0"/>
    </person>
    <person id="ped161" depart="1116.54" type="ped_pedestrian">
        <walk from="42986597" to="43912666#1"/>
    </person>
    <person id="ped162" depart="1123.47" type="ped_pedestrian">
        <walk from="-164215846#0" to="24829377#7"/>
    </person>
    <person id="ped163" depart="1130.41" type="ped_pedestrian">
        <walk from="-43912666#1" to="43912726#0"/>
    </person>
    <person id="ped164" depart="1137.34" type="ped_pedestrian">
        <walk from="42986595#2" to="43854633#1"/>
    </person>
    <person id="ped165" depart="1144.28" type="ped_pedestrian">
        <walk from="42986597" to="-31773424#1"/>
    </person>
    <person id="ped166" depart="1151.21" type="ped_pedestrian">
        <walk from="42133039#4" to="-217101442#1"/>
    </person>
    <person id="ped167" depart="1158.15" type="ped_pedestrian">
        <walk from="43854633#4" to="43854633#0"/>
    </person>
    <person id="ped168" depart="1165.08" type="ped_pedestrian">
        <walk from="-24829269" to="42986598#0"/>
    </person>
    <person id="ped169" depart="1172.02" type="ped_pedestrian">
        <walk from="164216286" to="-42986602#0"/>
    </person>
    <person id="ped170" depart="1178.95" type="ped_pedestrian">
        <walk from="42986595#1" to="-24829299#0"/>
    </person>
    <person id="ped171" depart="1185.89" type="ped_pedestrian">
        <walk from="-164215846#0" to="-231047289#3"/>
    </person>
    <person id="ped172" depart="1192.82" type="ped_pedestrian">
        <walk from="-43912666#0" to="43854633#2"/>
    </person>
    <person id="ped173" depart="1199.76" type="ped_pedestrian">
        <walk from="43915485#2" to="-42986598#1"/>
    </person>
    <person id="ped174" depart="1206.69" type="ped_pedestrian">
        <walk from="230931497#5" to="-43915485#1"/>
    </person>
    <person id="ped175" depart="1213.63" type="ped_pedestrian">
        <walk from="46621730#2" to="217101423"/>
    </person>
    <person id="ped176" depart="1220.56" type="ped_pedestrian">
        <walk from="43912730" to="-217101444"/>
    </person>
    <person id="ped177" depart="1227.50" type="ped_pedestrian">
        <walk from="43915485#3" to="-231047289#0"/>
    </person>
    <person id="ped178" depart="1234.43" type="ped_pedestrian">
        <walk from="43915485#1" to="-31773424#1"/>
    </person>
    <person id="ped179" depart="1241.37" type="ped_pedestrian">
        <walk from="-217101442#1" to="164215846#0"/>
    </person>
    <person id="ped180" depart="1248.30" type="ped_pedestrian">
        <walk from="24829377#1" to="-42986604"/>
    </person>
    <person id="ped181" depart="1255.24" type="ped_pedestrian">
        <walk from="230931464#0" to="217101402#0"/>
    </person>
    <person id="ped182" depart="1262.17" type="ped_pedestrian">
        <walk from="-43912730" to="217101454"/>
    </person>
    <person id="ped183" depart="1269.11" type="ped_pedestrian">
        <walk from="-24829379" to="24829259#5"/>
    </person>
    <person id="ped184" depart="1276.04" type="ped_pedestrian">
        <walk from="-160726551#1" to="43912723"/>
    </person>
    <person id="ped185" depart="1282.98" type="ped_pedestrian">
        <walk from="217101423" to="24829299#2"/>
    </person>
    <person id="ped186" depart="1289.91" type="ped_pedestrian">
        <walk from="24829377#8" to="231047289#2"/>
    </person>
    <person id="ped187" depart="1296.85" type="ped_pedestrian">
        <walk from="-43912696#1" to="-217101402#0"/>
    </person>
    <person id="ped188" depart="1303.78" type="ped_pedestrian">
        <walk from="231047289#0" to="-43912666#1"/>
    </person>
    <person id="ped189" depart="1310.72" type="ped_pedestrian">
        <walk from="-42986604" to="42986605"/>
    </person>
    <person id="ped190" depart="1317.65" type="ped_pedestrian">
        <walk from="24829299#2" to="-42986601#3"/>
    </person>
    <person id="ped191" depart="1324.59" type="ped_pedestrian">
        <walk from="-42986602#1" to="-639315113"/>
    </person>
    <person id="ped192" depart="1331.52" type="ped_pedestrian">
        <walk from="-43915485#1" to="-42986601#2"/>
    </person>
    <person id="ped193" depart="1338.46" type="ped_pedestrian">
        <walk from="-217101449#1" to="160726551#3"/>
    </person>
    <person id="ped194" depart="1345.39" type="ped_pedestrian">
        <walk from="43912730" to="231047289#3"/>
    </person>
    <person id="ped195" depart="1352.33" type="ped_pedestrian">
        <walk from="43912688#2" to="230931464#2"/>
    </person>
    <person id="ped196" depart="1359.26" type="ped_pedestrian">
        <walk from="-42986601#3" to="217101442#1"/>
    </person>
    <person id="ped197" depart="1366.20" type="ped_pedestrian">
        <walk from="-160726551#1" to="-42986601#0"/>
    </person>
    <person id="ped198" depart="1373.13" type="ped_pedestrian">
        <walk from="162767856#0" to="230931455#1"/>
    </person>
    <person id="ped199" depart="1380.07" type="ped_pedestrian">
        <walk from="230931498#2" to="164216288#0"/>
    </person>
    <person id="ped200" depart="1387.00" type="ped_pedestrian">
        <walk from="164215846#2" to="-24829259#0"/>
    </person>
    <person id="ped201" depart="1393.94" type="ped_pedestrian">
        <walk from="164216573" to="43912688#2"/>
    </person>
    <person id="ped202" depart="1400.87" type="ped_pedestrian">
        <walk from="42986595#1" to="-230931497#3"/>
    </person>
    <person id="ped203" depart="1407.81" type="ped_pedestrian">
        <walk from="-217101407" to="217101402#1"/>
    </person>
    <person id="ped204" depart="1414.74" type="ped_pedestrian">
        <walk from="230931497#3" to="-43912666#2"/>
    </person>
    <person id="ped205" depart="1421.68" type="ped_pedestrian">
        <walk from="42986598#1" to="24829381"/>
    </person>
    <person id="ped206" depart="1428.61" type="ped_pedestrian">
        <walk from="231047289#2" to="-24829269"/>
    </person>
    <person id="ped207" depart="1435.55" type="ped_pedestrian">
        <walk from="-24797309#2" to="-164215846#0"/>
    </person>
    <person id="ped208" depart="1442.48" type="ped_pedestrian">
        <walk from="-24829377#6" to="164216573"/>
    </person>
    <person id="ped209" depart="1449.42" type="ped_pedestrian">
        <walk from="43854452" to="-217101402#0"/>
    </person>
    <person id="ped210" depart="1456.35" type="ped_pedestrian">
        <walk from="160726551#0" to="230931497#2"/>
    </person>
    <person id="ped211" depart="1463.29" type="ped_pedestrian">
        <walk from="-24797200" to="24829229#1"/>
    </person>
    <person id="ped212" depart="1470.22" type="ped_pedestrian">
        <walk from="19428408" to="-24829377#3"/>
    </person>
    <person id="ped213" depart="1477.16" type="ped_pedestrian">
        <walk from="230931499" to="-160726551#2"/>
    </person>
    <person id="ped214" depart="1484.09" type="ped_pedestrian">
        <walk from="24829381" to="360892721#1"/>
    </person>
    <person id="ped215" depart="1491.03" type="ped_pedestrian">
        <walk from="-217101442#1" to="162767845#0"/>
    </person>
    <person id="ped216" depart="1497.96" type="ped_pedestrian">
        <walk from="-230931497#5" to="43915485#0"/>
    </person>
    <person id="ped217" depart="1504.90" type="ped_pedestrian">
        <walk from="217101406" to="-164216286"/>
    </person>
    <person id="ped218" depart="1511.83" type="ped_pedestrian">
        <walk from="-24829377#7" to="42986605"/>
    </person>
    <person id="ped219" depart="1518.77" type="ped_pedestrian">
        <walk from="164215847#1" to="42986595#2"/>
    </person>
    <person id="ped220" depart="1525.70" type="ped_pedestrian">
        <walk from="231047289#1" to="46621730#3"/>
    </person>
    <person id="ped221" depart="1532.64" type="ped_pedestrian">
        <walk from="230931457" to="43912761#0"/>
    </person>
    <person id="ped222" depart="1539.57" type="ped_pedestrian">
        <walk from="43912674" to="230931464#2"/>
    </person>
    <person id="ped223" depart="1546.51" type="ped_pedestrian">
        <walk from="24829299#2" to="217101396"/>
    </person>
    <person id="ped224" depart="1553.44" type="ped_pedestrian">
        <walk from="42986601#2" to="217101442#1"/>
    </person>
    <person id="ped225" depart="1560.38" type="ped_pedestrian">
        <walk from="43912688#1" to="24829377#8"/>
    </person>
    <person id="ped226" depart="1567.31" type="ped_pedestrian">
        <walk from="164216573" to="-24829381"/>
    </person>
    <person id="ped227" depart="1574.25" type="ped_pedestrian">
        <walk from="-24829377#6" to="230931497#4"/>
    </person>
    <person id="ped228" depart="1581.18" type="ped_pedestrian">
        <walk from="360892721#0" to="217101407"/>
    </person>
    <person id="ped229" depart="1588.12" type="ped_pedestrian">
        <walk from="230931497#1" to="-42986597"/>
    </person>
    <person id="ped230" depart="1595.05" type="ped_pedestrian">