<?xml version="1.0" encoding="UTF-8"?>

<!-- generated on Mon Oct  5 00:23:22 2020 by Eclipse SUMO polyconvert Version 1.7.0
<configuration xmlns:xsi="http://www.w3.org/2001/XMLSchema-instance" xsi:noNamespaceSchemaLocation="http://sumo.dlr.de/xsd/polyconvertConfiguration.xsd">

    <input>
        <net-file value="osm.net.xml"/>
        <osm-files value="osm_bbox.osm.xml"/>
        <osm.keep-full-type value="true"/>
        <type-file value="/usr/share/sumo/data/typemap/osmPolyconvert.typ.xml"/>
    </input>

    <output>
        <output-file value="osm.poly.xml"/>
    </output>

    <processing>
        <poi-layer-offset value="5"/>
    </processing>

    <report>
        <verbose value="true"/>
    </report>

</configuration>
-->

<additional xmlns:xsi="http://www.w3.org/2001/XMLSchema-instance" xsi:noNamespaceSchemaLocation="http://sumo.dlr.de/xsd/additional_file.xsd">
    <location netOffset="-670652.29,-4549535.22" convBoundary="0.00,-234.09,1985.60,1298.13" origBoundary="29.031496,41.077024,29.055289,41.090687" projParameter="+proj=utm +zone=35 +ellps=WGS84 +datum=WGS84 +units=m +no_defs"/>

    <poly id="162767835" type="amenity.parking" color="184,184,179" fill="1" layer="-1.00" shape="1621.171023,534.603192 1619.845632,520.564509 1618.993775,515.690160 1584.803608,521.717207 1573.864882,523.670383 1562.834282,525.599197 1564.228090,533.518835 1566.124461,544.727228 1614.646837,536.115894 1621.171023,534.603192"/>
    <poly id="162767843" type="amenity.parking" color="184,184,179" fill="1" layer="-1.00" shape="1558.024359,666.460686 1552.766425,664.170884 1571.282319,612.719910 1579.363041,601.846225 1593.962541,597.546497 1602.161600,597.361747 1609.416342,598.732155 1616.710565,603.424864 1617.183214,609.412222 1595.195209,666.246650 1592.601328,670.040174 1588.864573,672.040596 1583.940672,673.057778 1562.380219,667.796178 1558.024359,666.460686"/>
    <poly id="162767860" type="building.university" color="255,230,230" fill="1" layer="-1.00" shape="1546.629284,580.636973 1631.882728,566.580425 1628.841931,545.791988 1572.078542,552.798588 1572.939127,558.017490 1565.531080,559.231734 1564.641068,553.834409 1542.796766,557.408364 1544.723931,569.095128 1546.629284,580.636973"/>
    <poly id="162852657" type="aeroway.helipad" color="grey" fill="1" layer="-2.00" shape="1410.702988,648.711125 1410.482631,638.419728 1410.180436,624.816156 1386.290318,625.332146 1386.812948,649.227112 1410.702988,648.711125"/>
    <poly id="162852658" type="building.university" color="255,230,230" fill="1" layer="-1.00" shape="1543.670287,496.333619 1547.610486,519.631407 1555.069754,518.385024 1555.763269,522.489169 1573.736546,519.479558 1573.153896,516.022296 1578.680890,515.097049 1574.621792,491.141056 1543.670287,496.333619"/>
    <poly id="162958309" type="leisure.park" color="207,245,201" fill="1" layer="-2.00" shape="1506.725559,714.185793 1511.389479,752.807742 1536.639632,788.425951 1548.024856,796.414012 1567.480261,849.691430 1649.824590,878.755683 1687.211296,860.762939 1737.538459,868.224229 1753.000953,823.699944 1762.974762,805.606243 1791.321693,809.251022 1795.224391,792.358434 1794.167825,782.980387 1726.077851,781.010000 1677.447828,767.479240 1685.925619,737.242229 1712.625727,722.674812 1758.051509,708.470760 1775.308087,741.224481 1806.381975,752.564916 1812.111420,750.889260 1827.421846,723.190536 1830.529323,710.089360 1884.120057,671.129304 1901.949435,655.320394 1916.550595,665.573174 1970.493308,617.424359 1972.022958,609.584666 1967.592846,604.270417 1946.647347,605.365006 1946.309661,587.961494 1958.833066,584.391108 1952.168309,552.653145 1946.358695,539.897170 1929.738337,517.955277 1952.108540,506.352472 1915.512967,491.748771 1890.102582,484.707013 1870.468036,469.392511 1860.652221,445.800517 1845.245980,432.951794 1833.417506,442.692733 1820.995370,425.904295 1834.383127,415.622446 1833.897318,394.860776 1825.650879,390.267613 1804.070793,399.723314 1784.696556,376.195091 1779.358874,379.068594 1772.661010,375.100705 1765.484244,392.893716 1763.959911,393.735366 1762.826087,396.196911 1766.511518,396.383685 1776.365046,394.838445 1780.984293,398.557428 1763.135395,416.610052 1764.192603,417.401421 1783.495165,400.793788 1786.382287,403.827697 1785.231298,405.233550 1793.192120,424.449510 1796.619793,428.084895 1813.399135,447.941843 1869.284656,516.752465 1870.372313,528.019659 1854.644608,533.814098 1845.573682,540.676305 1829.666923,551.931840 1807.381757,568.502396 1833.885681,577.635783 1838.557300,584.832931 1839.361590,594.216147 1814.178288,599.310205 1787.148902,599.284387 1726.335821,565.904756 1721.736244,569.206679 1733.195071,631.538320 1733.595512,646.654974 1718.904723,651.618769 1721.937889,667.363938 1692.675151,670.107359 1689.854946,655.666885 1658.639359,660.319518 1654.909555,646.313087 1677.099344,642.336605 1676.604299,624.807244 1634.094694,630.082774 1631.472017,610.814893 1631.280957,596.791793 1621.404603,600.391700 1618.672492,619.700178 1600.688836,666.020459 1589.847285,673.496683 1582.253103,675.839564 1575.649270,677.528152 1578.065303,686.293858 1554.862870,691.524255 1526.712922,710.212613 1515.900781,699.649855 1506.725559,714.185793"/>
    <poly id="162958313" type="landuse.forest" color="140,196,107" fill="1" layer="-3.00" shape="1276.773719,659.427312 1285.955746,652.455964 1283.947033,642.078142 1309.676525,621.576914 1328.388963,592.813017 1344.069316,558.601540 1374.998040,527.892035 1401.772924,501.561632 1403.030281,486.328486 1413.006050,483.863659 1422.335926,489.925887 1449.505102,504.038856 1465.546720,512.047363 1486.215161,515.232651 1513.500771,505.088228 1545.137122,482.927159 1568.892858,469.567378 1579.754795,468.023389 1580.313364,465.359445 1566.613946,464.615033 1546.923478,465.584793 1541.343698,462.321020 1540.688641,455.151910 1557.051266,443.084478 1571.802696,440.199010 1582.284477,440.167907 1587.521426,463.718393 1609.099517,466.469987 1621.199972,469.442932 1674.617694,498.548578 1677.428177,494.127008 1660.804880,472.630036 1681.254806,456.537923 1658.141630,432.588781 1678.885071,413.315499 1677.743178,411.122511 1695.974360,395.744669 1687.636230,386.117472 1675.430921,368.312452 1643.695140,372.875209 1632.061438,368.991237 1630.003097,341.094441 1613.210350,249.978306 1614.962712,214.084399 1601.585557,207.482383 1594.463668,245.105030 1562.671062,241.702224 1567.336191,206.676630 1521.376349,205.595627 1516.927309,280.049421 1504.321940,317.476527 1506.350962,346.283444 1526.820722,396.174259 1519.646441,432.829312 1510.952672,460.117720 1492.564919,456.086235 1488.979465,435.207318 1422.070986,440.410306 1419.100206,452.015219 1402.849348,452.544130 1401.347309,439.923212 1321.335312,467.679862 1307.178304,532.930200 1272.056617,532.116362 1265.866933,584.523950 1262.592893,608.696288 1261.886563,638.771851 1266.874358,656.862083 1270.760835,666.017666 1276.678803,663.468473 1276.773719,659.427312"/>
    <poly id="162958314" type="landuse.forest" color="140,196,107" fill="1" layer="-3.00" shape="1327.769137,623.845926 1330.223182,624.925538 1397.232050,569.959321 1415.021618,561.168736 1429.608439,564.199812 1480.917532,567.883281 1536.934888,582.219574 1543.591679,577.210831 1542.279783,556.518652 1564.538790,552.465689 1561.459000,536.541781 1536.135327,520.450088 1512.232570,511.123496 1490.363601,529.682036 1471.875012,532.090995 1457.381918,523.641226 1436.750856,509.570836 1419.664707,507.380768 1408.500181,512.505834 1389.873775,533.295869 1369.076719,553.468419 1348.161976,581.158522 1333.413677,609.326800 1327.769137,623.845926"/>
    <poly id="162958317" type="landuse.forest" color="140,196,107" fill="1" layer="-3.00" shape="1519.290274,508.368021 1544.716354,519.752168 1543.670287,496.333619 1574.621792,491.141056 1578.680890,515.097049 1573.153896,516.022296 1573.864882,523.670383 1584.803608,521.717207 1618.993775,515.690160 1621.171023,534.603192 1640.115437,527.828687 1640.284237,520.656735 1653.155184,510.173573 1665.772411,510.470564 1670.886953,503.859363 1619.667770,477.049344 1585.525453,471.747120 1563.259259,479.310066 1540.190519,494.552206 1539.121505,496.048889 1541.163693,505.705549 1539.394628,507.663418 1527.971553,509.483080 1525.627831,509.072491 1523.427213,506.865735 1522.176048,506.458628 1519.290274,508.368021"/>
    <poly id="167449844" type="building.yes" color="255,230,230" fill="1" layer="-1.00" shape="995.364125,820.112541 996.842331,821.946734 1008.632602,822.001066 1011.034566,819.924623 1014.373427,819.469735 1014.411306,817.137902 1015.846898,815.771937 1015.663097,809.991364 1014.210353,808.146657 1014.066943,804.944133 1011.280511,804.778811 1011.045221,801.551916 1005.378984,801.618980 1005.072516,805.010901 1000.844752,805.022837 1000.930737,801.714611 995.168456,801.934945 995.175064,804.878772 992.701322,804.998494 990.700887,809.305997 990.471428,815.865560 992.136118,816.915442 992.275824,819.917931 995.364125,820.112541"/>
    <poly id="167449845" type="building.yes" color="255,230,230" fill="1" layer="-1.00" shape="961.654110,1007.561580 980.466808,1008.113788 981.020663,989.153973 962.216315,988.601963 961.654110,1007.561580"/>
    <poly id="167449849" type="building.university" color="255,230,230" fill="1" layer="-1.00" shape="1107.297635,805.342812 1158.877488,805.653569 1158.904180,800.577744 1167.315901,800.630786 1167.359095,793.778034 1172.283285,793.815866 1172.646116,733.962244 1159.637688,733.879063 1159.617607,736.166883 1104.819541,735.802849 1103.323819,735.789969 1103.397437,724.772359 1091.842984,724.690091 1091.869874,726.767956 1091.578834,745.978317 1098.920428,746.150575 1098.894370,750.126700 1093.936293,750.099232 1093.256315,765.468138 1093.668302,792.326331 1100.264860,792.370030 1100.219187,799.689264 1107.336795,799.734088 1107.297635,805.342812"/>
    <poly id="167449854" type="building.university" color="255,230,230" fill="1" layer="-1.00" shape="1024.229451,800.583684 1040.760704,800.604856 1040.778487,787.664221 1040.792409,770.946709 1024.260829,770.936641 1024.229451,800.583684"/>
    <poly id="167449856" type="building.university" color="255,230,230" fill="1" layer="-1.00" shape="1022.216518,945.531793 980.804269,945.338169 980.870457,930.688009 1004.761700,930.792839 1004.802645,921.162991 1018.172438,921.232174 1018.124126,932.250375 1022.275439,932.269984 1022.216518,945.531793"/>
    <poly id="167449860" type="building.yes" color="255,230,230" fill="1" layer="-1.00" shape="1521.265503,697.398875 1528.214443,706.049018 1546.749967,691.266749 1539.801032,682.616588 1521.265503,697.398875"/>
    <poly id="167449863" type="building.university" color="255,230,230" fill="1" layer="-1.00" shape="1099.401508,871.429079 1099.871553,812.355568 1140.978021,812.720379 1140.707606,859.335181 1140.527689,866.284697 1125.587272,866.167328 1125.543081,871.631528 1099.401508,871.429079"/>
    <poly id="167449864" type="building.university" color="255,230,230" fill="1" layer="-1.00" shape="1036.160675,856.260118 1035.728398,876.122548 1066.000322,876.521643 1065.949466,872.599254 1073.131596,872.756644 1072.700598,874.290573 1087.266648,874.243536 1087.589345,854.400747 1071.423569,854.210306 1071.328304,858.629136 1066.386580,858.624282 1066.452346,856.537483 1036.160675,856.260118"/>
    <poly id="167449873" type="building.yes" color="255,230,230" fill="1" layer="-1.00" shape="944.745881,995.679279 960.069279,995.938572 960.439878,974.397361 945.116695,974.126967 944.745881,995.679279"/>
    <poly id="167449874" type="building.college" color="255,230,230" fill="1" layer="-1.00" shape="985.744479,962.249608 1007.785853,962.388832 1007.555428,1001.239911 1020.622165,1001.324215 1020.520019,1017.861931 985.411842,1017.649501 985.744479,962.249608"/>
    <poly id="167449876" type="building.dormitory" color="255,230,230" fill="1" layer="-1.00" shape="976.857984,965.606957 972.919028,965.492378 972.821459,968.578169 958.821185,968.161036 958.901499,965.452519 954.786148,965.333814 956.061624,921.686296 978.133401,922.326006 976.857984,965.606957"/>
    <poly id="167449882" type="building.yes" color="255,230,230" fill="1" layer="-1.00" shape="1029.195994,806.698598 1029.131945,821.970868 1066.990442,822.136897 1067.054570,806.864625 1047.440296,806.782181 1029.195994,806.698598"/>
    <poly id="167450753" type="leisure.park" color="207,245,201" fill="1" layer="-2.00" shape="1580.812013,1013.896180 1633.145696,1041.398878 1652.360793,1029.498828 1654.067287,1014.487318 1641.947479,993.096329 1658.183235,968.884860 1642.281665,940.340000 1659.181901,926.463737 1661.421079,922.384181 1654.981159,918.189172 1665.152626,888.114205 1604.474278,880.165416 1554.192602,871.128741 1539.827680,887.630888 1563.873010,929.063825 1576.722465,976.965001 1580.812013,1013.896180"/>
    <poly id="167450755" type="amenity.community_centre" color="237,199,199" fill="1" layer="-1.00" shape="608.615988,792.724978 614.005020,794.806105 629.802413,800.685398 637.014473,802.798094 652.977753,808.770186 662.601106,787.934325 660.296931,786.913987 622.482763,772.999198 617.298606,770.422992 613.104722,781.199755 608.615988,792.724978"/>
    <poly id="167450755#1" type="building.yes" color="255,230,230" fill="1" layer="-1.00" shape="608.615988,792.724978 614.005020,794.806105 629.802413,800.685398 637.014473,802.798094 652.977753,808.770186 662.601106,787.934325 660.296931,786.913987 622.482763,772.999198 617.298606,770.422992 613.104722,781.199755 608.615988,792.724978"/>
    <poly id="167450756" type="building.yes" color="255,230,230" fill="1" layer="-1.00" shape="598.670010,747.248732 605.490060,760.371519 578.547948,774.259583 588.271294,792.971028 600.727616,797.605739 611.459169,801.600275 614.005020,794.806105 629.802413,800.685398 620.299717,826.067360 627.323666,828.675513 637.014473,802.798094 652.977753,808.770186 639.873586,842.954374 600.176895,828.329141 605.071298,815.269372 578.625329,805.442001 559.009706,767.693065 598.670010,747.248732"/>
    <poly id="167450760" type="building.yes" color="255,230,230" fill="1" layer="-1.00" shape="569.214081,728.475573 578.320419,746.261696 617.956820,726.127929 608.850287,708.352856 569.214081,728.475573"/>
    <poly id="167450761" type="leisure.pitch" color="207,245,201" fill="1" layer="-2.00" shape="638.973010,731.673910 676.056046,746.671369 660.296931,786.913987 622.482763,772.999198 632.482246,747.939890 638.973010,731.673910"/>
    <poly id="167450761#1" type="sport.basketball" color="79,230,125" fill="1" layer="-2.00" shape="638.973010,731.673910 676.056046,746.671369 660.296931,786.913987 622.482763,772.999198 632.482246,747.939890 638.973010,731.673910"/>
    <poly id="175837447" type="shop.hairdresser" color="237,199,255" fill="1" layer="-1.00" shape="755.187939,585.755903 739.114648,603.130410 722.891256,588.865369 743.926855,566.674985 757.146314,579.292371 753.217912,583.743627 755.187939,585.755903"/>
    <poly id="186351490" type="building.roof" color="255,230,230" fill="1" layer="-1.00" shape="1065.080047,789.645024 1065.264117,780.007424 1075.456386,780.113238 1075.231084,789.716547 1065.080047,789.645024"/>
    <poly id="186735748" type="amenity.parking" color="184,184,179" fill="1" layer="-1.00" shape="1042.748933,753.463864 1042.883974,765.263939 999.918789,764.944970 1000.044277,759.593762 1004.324946,753.384692 1042.748933,753.463864"/>
    <poly id="187065394" type="leisure.pitch" color="207,245,201" fill="1" layer="-2.00" shape="997.483755,775.240705 1012.176513,775.174264 1012.303692,799.137626 997.610983,799.204066 997.483755,775.240705"/>
    <poly id="187065394#1" type="sport.basketball" color="79,230,125" fill="1" layer="-2.00" shape="997.483755,775.240705 1012.176513,775.174264 1012.303692,799.137626 997.610983,799.204066 997.483755,775.240705"/>
    <poly id="215083944" type="building.university" color="255,230,230" fill="1" layer="-1.00" shape="1491.514012,544.738525 1500.871003,544.280967 1500.683871,540.444226 1510.099932,539.976961 1510.265470,543.302215 1519.908596,542.829194 1519.753597,539.770785 1519.053290,525.591316 1497.351942,526.658312 1497.831987,536.267113 1491.108701,536.597769 1491.514012,544.738525"/>
    <poly id="219271182" type="building.dormitory" color="255,230,230" fill="1" layer="-1.00" shape="665.550738,613.782880 684.628768,607.708906 673.853853,573.954489 655.522584,580.079295 665.550738,613.782880"/>
    <poly id="226443733" type="building.yes" color="255,230,230" fill="1" layer="-1.00" shape="687.244350,661.855792 679.034509,631.627147 693.556770,627.723744 701.758157,657.952210 687.244350,661.855792"/>
    <poly id="226443936" type="building.yes" color="255,230,230" fill="1" layer="-1.00" shape="649.555278,671.659757 642.815574,642.531947 658.000445,639.043875 664.731433,668.182606 649.555278,671.659757"/>
    <poly id="226443937" type="building.yes" color="255,230,230" fill="1" layer="-1.00" shape="723.263534,654.456717 719.603949,638.453033 733.224456,635.372818 736.875613,651.376313 723.263534,654.456717"/>
    <poly id="285387761" type="building.apartments" color="255,230,230" fill="1" layer="-1.00" shape="667.044551,470.944643 682.557837,488.991909 696.759305,477.260842 682.039377,459.432060 667.044551,470.944643"/>
    <poly id="310825394" type="amenity.cafe" color="237,199,199" fill="1" layer="-1.00" shape="1249.516834,687.357495 1238.447324,677.000182 1243.205397,671.946595 1246.881498,675.387602 1251.649681,672.766956 1257.639563,676.817717 1257.791570,678.576385 1249.516834,687.357495"/>
    <poly id="310825394#1" type="building.yes" color="255,230,230" fill="1" layer="-1.00" shape="1249.516834,687.357495 1238.447324,677.000182 1243.205397,671.946595 1246.881498,675.387602 1251.649681,672.766956 1257.639563,676.817717 1257.791570,678.576385 1249.516834,687.357495"/>
    <poly id="310825527" type="amenity.cafe" color="237,199,199" fill="1" layer="-1.00" shape="1272.738589,739.978188 1269.876945,719.038637 1289.694676,722.636639 1292.328138,726.453076 1287.608111,739.905338 1272.738589,739.978188"/>
    <poly id="310825527#1" type="building.yes" color="255,230,230" fill="1" layer="-1.00" shape="1272.738589,739.978188 1269.876945,719.038637 1289.694676,722.636639 1292.328138,726.453076 1287.608111,739.905338 1272.738589,739.978188"/>
    <poly id="310825886" type="amenity.parking" color="184,184,179" fill="1" layer="-1.00" shape="995.025492,651.404458 996.941193,605.550329 1072.776324,605.240625 1073.400324,667.849963 995.025492,651.404458"/>
    <poly id="397800360" type="amenity.place_of_worship" color="237,199,199" fill="1" layer="-1.00" shape="1193.821230,739.169216 1200.883562,726.893823 1211.913785,733.195661 1204.851439,745.471044 1193.821230,739.169216"/>
    <poly id="397800360#1" type="building.yes" color="255,230,230" fill="1" layer="-1.00" shape="1193.821230,739.169216 1200.883562,726.893823 1211.913785,733.195661 1204.851439,745.471044 1193.821230,739.169216"/>
    <poly id="397806104" type="landuse.grass" color="194,194,130" fill="1" layer="-3.00" shape="1253.496861,708.634327 1267.975629,710.529520 1277.589708,710.566489 1279.385791,709.242365 1280.084099,704.559991 1278.021509,700.412613 1272.210312,697.343553 1268.296873,696.851743 1260.428276,697.644464 1254.434242,702.002521 1251.829321,704.485127 1250.805321,706.216177 1253.496861,708.634327"/>
    <poly id="397806105" type="building.yes" color="255,230,230" fill="1" layer="-1.00" shape="976.095934,675.154245 992.888700,679.446971 980.998096,725.600404 964.205693,721.296600 976.095934,675.154245"/>
    <poly id="397806106" type="building.yes" color="255,230,230" fill="1" layer="-1.00" shape="914.280050,718.160104 920.258032,672.523381 935.533107,674.514331 929.555030,720.151044 914.280050,718.160104"/>
    <poly id="397806107" type="building.yes" color="255,230,230" fill="1" layer="-1.00" shape="879.053339,713.979861 883.129414,667.720927 901.397459,669.315398 897.321009,715.585427 879.053339,713.979861"/>
    <poly id="397806108" type="landuse.residential" color="235,235,227" fill="1" layer="-3.00" shape="714.221954,926.850693 701.219528,895.654454 689.557468,857.458150 690.398975,821.509591 689.852903,777.697293 693.729193,775.466423 844.125680,783.487365 836.064457,819.055740 837.566078,872.265794 839.258900,900.453594 801.474357,905.044753 792.829558,905.619832 791.813774,898.753400 786.806623,894.726040 781.667554,895.971979 779.756940,902.192243 783.169742,907.548562 714.221954,926.850693"/>
    <poly id="397806109" type="building.yes" color="255,230,230" fill="1" layer="-1.00" shape="815.713614,923.606840 816.465794,903.696381 837.643073,904.492440 836.890835,924.402898 815.713614,923.606840"/>
    <poly id="397806110" type="building.yes" color="255,230,230" fill="1" layer="-1.00" shape="802.207631,951.238642 802.959778,931.328182 824.145376,932.124401 823.393172,952.034860 802.207631,951.238642"/>
    <poly id="397806111" type="building.yes" color="255,230,230" fill="1" layer="-1.00" shape="767.746246,1000.551580 776.838028,971.916574 792.222056,976.764612 783.121558,1005.410507 767.746246,1000.551580"/>
    <poly id="397806112" type="building.yes" color="255,230,230" fill="1" layer="-1.00" shape="728.399378,973.903627 732.483438,958.847702 760.085446,966.292270 755.992932,981.347984 728.399378,973.903627"/>
    <poly id="397806113" type="building.yes" color="255,230,230" fill="1" layer="-1.00" shape="864.026913,1004.095701 872.761120,974.597083 892.468230,980.379761 883.742087,1009.889657 864.026913,1004.095701"/>
    <poly id="397806114" type="building.yes" color="255,230,230" fill="1" layer="-1.00" shape="826.611202,1037.087869 834.328129,1009.031661 853.008957,1014.134808 845.291962,1042.190999 826.611202,1037.087869"/>
    <poly id="397806115" type="building.yes" color="255,230,230" fill="1" layer="-1.00" shape="818.540979,983.368455 848.184286,991.205541 844.314077,1005.733231 814.670826,997.896159 818.540979,983.368455"/>
    <poly id="397806116" type="building.yes" color="255,230,230" fill="1" layer="-1.00" shape="861.893748,1044.557277 870.081709,1016.489922 885.766864,1021.034193 877.578847,1049.101533 861.893748,1044.557277"/>
    <poly id="397806117" type="building.yes" color="255,230,230" fill="1" layer="-1.00" shape="818.749495,974.109114 824.027133,958.336945 840.130497,963.690697 834.852826,979.462856 818.749495,974.109114"/>
    <poly id="397806118" type="building.yes" color="255,230,230" fill="1" layer="-1.00" shape="841.854330,981.226479 847.132015,965.454325 863.243748,970.808325 857.966031,986.580469 841.854330,981.226479"/>
    <poly id="41731417" type="amenity.university" color="237,199,199" fill="1" layer="-1.00" shape="1321.335312,467.679862 1401.347309,439.923212 1402.849348,452.544130 1419.100206,452.015219 1422.070986,440.410306 1488.979465,435.207318 1519.646441,432.829312 1526.820722,396.174259 1506.350962,346.283444 1504.321940,317.476527 1516.927309,280.049421 1521.376349,205.595627 1567.336191,206.676630 1570.248922,160.035039 1555.095295,152.480452 1563.616529,125.399079 1607.689394,140.254562 1601.585557,207.482383 1614.962712,214.084399 1613.210350,249.978306 1630.003097,341.094441 1632.061438,368.991237 1643.695140,372.875209 1704.365521,361.706611 1710.792172,351.849391 1712.745212,327.801591 1735.545254,331.504292 1734.089161,353.719823 1779.581832,374.241756 1800.258177,362.476391 1821.587937,386.839413 1795.335841,407.304431 1796.619793,428.084895 1813.399135,447.941843 1869.284656,516.752465 1891.919083,522.462382 1929.738337,517.955277 1946.358695,539.897170 1953.704786,537.037822 1959.888102,568.520050 1969.567262,581.134014 1985.596126,606.405655 1984.521619,613.833965 1921.606147,673.234874 1900.555674,693.766578 1895.752051,714.281397 1868.438289,745.951543 1846.537391,756.221522 1825.054258,770.522597 1785.483716,760.237144 1795.224391,792.358434 1791.321693,809.251022 1787.184165,827.193363 1753.000953,823.699944 1737.538459,868.224229 1687.211296,860.762939 1649.824590,878.755683 1518.190566,857.785045 1484.782885,833.827529 1419.801922,791.154767 1379.820723,765.788010 1358.006214,748.812964 1339.346155,737.799464 1324.234609,727.424795 1297.601158,710.569998 1285.878436,695.465163 1284.638144,688.871074 1287.770155,681.124457 1298.995188,670.546511 1283.113047,650.389715 1272.425467,661.702342 1270.398641,661.399250 1269.533821,658.857374 1271.391402,636.306892 1291.708912,577.488452 1307.178304,532.930200 1321.335312,467.679862"/>
    <poly id="41731444" type="amenity.university" color="237,199,199" fill="1" layer="-1.00" shape="1013.788956,677.748773 1063.972945,688.156756 1086.890780,689.305363 1182.111484,720.998994 1187.506907,721.014571 1188.589604,725.016727 1179.972628,733.345546 1178.382072,871.272181 1065.076539,894.761856 1032.596745,902.142254 1037.218269,919.379503 1041.163448,995.185551 1025.352347,1027.183975 1015.581818,1047.093975 1019.347086,1078.618502 976.764556,1087.506133 954.802996,1024.118781 927.707632,987.548542 935.407081,967.067797 953.974875,890.245616 965.342436,843.802181 988.929826,760.821631 1013.788956,677.748773"/>
    <poly id="41731457" type="amenity.university" color="237,199,199" fill="1" layer="-1.00" shape="786.585793,660.860402 830.077420,652.003956 852.354155,663.300788 844.125680,783.487365 693.729193,775.466423 681.553987,756.308649 643.316046,848.844506 597.738605,831.604544 572.291076,801.372645 552.877991,766.461046 637.883005,721.506649 625.356646,693.998535 633.498271,690.512241 614.174317,629.876071 636.145211,577.393110 669.914037,560.221455 786.585793,660.860402"/>
    <poly id="43912632" type="amenity.bus_station" color="237,199,199" fill="1" layer="-1.00" shape="1579.622266,1045.526690 1613.466347,1063.385449 1633.765142,1043.646218 1582.559951,1016.403343 1579.622266,1045.526690"/>
    <poly id="43912663" type="amenity.library" color="237,199,199" fill="1" layer="-1.00" shape="1012.836476,746.675003 1060.273302,747.698781 1060.630620,731.033756 1061.316604,698.924936 1013.879200,697.912263 1012.836476,746.675003"/>
    <poly id="43912663#1" type="building.yes" color="255,230,230" fill="1" layer="-1.00" shape="1012.836476,746.675003 1060.273302,747.698781 1060.630620,731.033756 1061.316604,698.924936 1013.879200,697.912263 1012.836476,746.675003"/>
    <poly id="479481393" type="building.yes" color="255,230,230" fill="1" layer="-1.00" shape="611.801039,585.465661 619.596192,602.899015 600.708053,611.276987 592.912867,593.843654 611.801039,585.465661"/>
    <poly id="498371229" type="building.yes" color="255,230,230" fill="1" layer="-1.00" shape="747.880969,765.004012 809.110170,752.363948 811.610995,764.363821 750.381887,777.003862 747.880969,765.004012"/>
    <poly id="498371230" type="leisure.track" color="207,245,201" fill="1" layer="-2.00" shape="697.329278,685.941094 688.572570,692.723155 683.235732,699.540840 681.081400,703.967007 678.847815,711.779309 678.012605,721.968166 678.127370,733.223427 680.475403,744.219931 687.592356,755.783500 695.502370,764.344220 706.817237,769.629990 718.927876,771.079873 747.880969,765.004012 809.110170,752.363948 821.783659,749.161749 831.585020,744.070544 838.850314,734.943206 843.724576,722.405184 844.304145,711.299473 843.442733,699.637917 839.582912,688.605931 834.060878,678.568066 825.891920,669.223556 815.337215,664.133144 802.861745,662.463510 697.329278,685.941094"/>
    <poly id="498371230#1" type="sport.athletics" color="79,230,125" fill="1" layer="-2.00" shape="697.329278,685.941094 688.572570,692.723155 683.235732,699.540840 681.081400,703.967007 678.847815,711.779309 678.012605,721.968166 678.127370,733.223427 680.475403,744.219931 687.592356,755.783500 695.502370,764.344220 706.817237,769.629990 718.927876,771.079873 747.880969,765.004012 809.110170,752.363948 821.783659,749.161749 831.585020,744.070544 838.850314,734.943206 843.724576,722.405184 844.304145,711.299473 843.442733,699.637917 839.582912,688.605931 834.060878,678.568066 825.891920,669.223556 815.337215,664.133144 802.861745,662.463510 697.329278,685.941094"/>
    <poly id="498371231" type="leisure.pitch" color="207,245,201" fill="1" layer="-2.00" shape="699.156780,694.759326 714.088725,763.101994 819.858903,740.196792 804.928128,671.842780 699.156780,694.759326"/>
    <poly id="498371231#1" type="sport.soccer" color="79,230,125" fill="1" layer="-2.00" shape="699.156780,694.759326 714.088725,763.101994 819.858903,740.196792 804.928128,671.842780 699.156780,694.759326"/>
    <poly id="582224052" type="building.yes" color="255,230,230" fill="1" layer="-1.00" shape="1031.179874,842.513529 1046.251083,842.789286 1046.586756,824.179817 1031.515509,823.904060 1031.179874,842.513529"/>
    <poly id="583786071" type="building.yes" color="255,230,230" fill="1" layer="-1.00" shape="1027.947288,915.118658 1034.466959,914.494008 1036.908918,939.733580 1030.389268,940.358227 1027.947288,915.118658"/>
    <poly id="608265414" type="building.yes" color="255,230,230" fill="1" layer="-1.00" shape="967.532208,566.504206 967.881152,549.827888 983.876201,550.158468 983.851092,551.946298 983.745626,566.839907 967.532208,566.504206"/>
    <poly id="608265415" type="building.yes" color="255,230,230" fill="1" layer="-1.00" shape="983.745626,566.839907 983.730099,569.294453 998.637767,569.399624 998.758796,552.051468 983.851092,551.946298 983.745626,566.839907"/>
    <poly id="608265416" type="building.yes" color="255,230,230" fill="1" layer="-1.00" shape="956.889058,640.113035 957.630119,604.917450 976.783504,605.322063 976.042351,640.517649 956.889058,640.113035"/>
    <poly id="705640285" type="landuse.construction" color="194,194,130" fill="1" layer="-3.00" shape="1185.088889,687.610963 1191.639412,667.781073 1194.779019,668.299107 1206.054548,687.425564 1205.060863,691.445623 1199.334761,695.132413 1190.316289,695.142855 1185.088889,687.610963"/>
    <poly id="708770132" type="building.university" color="255,230,230" fill="1" layer="-1.00" shape="1114.143100,785.108782 1149.165294,785.453049 1149.405428,760.898439 1114.383117,760.554174 1114.143100,785.108782"/>