<?xml version="1.0" encoding="UTF-8"?>

<!-- generated on 2021-12-20 18:21:31 by Eclipse SUMO duarouter Version 1.11.0
<configuration xmlns:xsi="http://www.w3.org/2001/XMLSchema-instance" xsi:noNamespaceSchemaLocation="http://sumo.dlr.de/xsd/duarouterConfiguration.xsd">

    <input>
        <net-file value="osm.net.xml"/>
        <route-files value="osm.pedestrian.trips.xml"/>
    </input>

    <output>
        <output-file value="osm.pedestrian.rou.xml"/>
        <alternatives-output value="osm.pedestrian.rou.alt.xml"/>
    </output>

    <time>
        <begin value="0"/>
        <end value="3600"/>
    </time>

    <report>
        <no-warnings value="true"/>
        <ignore-errors value="true"/>
        <no-step-log value="true"/>
    </report>

</configuration>
-->

<routes xmlns:xsi="http://www.w3.org/2001/XMLSchema-instance" xsi:noNamespaceSchemaLocation="http://sumo.dlr.de/xsd/routes_file.xsd">
    <vType id="ped_pedestrian" vClass="pedestrian"/>
    <person id="ped0" type="ped_pedestrian" depart="0.00">
        <walk edges="230931497#4 -230931497#5 -43912696#3 -43915485#0 46621730#0 46621730#1 46621730#2 46621730#3 -230931459#3 -230931459#0 42133039#0 42133039#3 42133039#4 164216288#0 230931487 230931456#0 230931456#3 -164215846#0"/>
    </person>
    <person id="ped1" type="ped_pedestrian" depart="6.94">
        <walk edges="-42986597 46621730#3 -230931459#3 -24829269"/>
    </person>
    <person id="ped2" type="ped_pedestrian" depart="13.87">
        <walk edges="24829377#7 -217101392 360892721#1 360892721#2 360892721#4 42133039#4 639315109 639315111#1 639315111#0 231047289#3"/>
    </person>
    <person id="ped3" type="ped_pedestrian" depart="20.81">
        <walk edges="43912688#0 -43915485#1 -43915485#0 46621730#0 46621730#1 46621730#2 46621730#3 -230931459#3 -230931459#0 230931464#2 230931464#1 230931457 24829259#3 217101442#0 217101442#1 217101413 -217101413"/>
    </person>
    <person id="ped4" type="ped_pedestrian" depart="27.74">
        <walk edges="160726551#3 -160726551#2 -31773424#1 230931456#3 164215846#0 -164215846#1"/>
    </person>
    <person id="ped5" type="ped_pedestrian" depart="34.68">
        <walk edges="-24829259#3 -24829259#0 43854633#3 43854633#4 639315111#1 639315109 164216288#0 230931487 230931456#0 230931456#3 164215846#0 164215846#1 164215846#2 217101396"/>
    </person>
    <person id="ped6" type="ped_pedestrian" depart="41.61">
        <walk edges="-164215846#0 230931456#3 230931456#0 230931487 164216288#0 42133039#4 42133039#3 42133039#0 -230931459#0 230931459#1 42986595#0 42986595#1 -42986602#1 -42986602#0 -24797309#2"/>
    </person>
    <person id="ped7" type="ped_pedestrian" depart="48.55">
        <walk edges="230931498#1 230931498#0 230931465 46621730#2 46621730#3 -230931459#3 -230931459#0 230931464#2 230931464#1 230931457 24829259#3 217101442#0"/>
    </person>
    <person id="ped8" type="ped_pedestrian" depart="55.48">
        <walk edges="-24829259#3 -24829259#0 43854633#3 43854633#4 639315111#1 639315109 164216288#0 230931487 230931456#0 230931456#3 230931456#4"/>
    </person>
    <person id="ped9" type="ped_pedestrian" depart="62.42">
        <walk edges="42986595#4 46621730#1 46621730#2 46621730#3 -230931459#3 -230931459#0 230931464#2 230931464#1 230931464#0 639315111#1 639315111#0 -231047289#3 -231047289#2 -160726551#3 -160726551#2"/>
    </person>
    <person id="ped10" type="ped_pedestrian" depart="69.35">
        <walk edges="42986595#3 46621730#1 46621730#2 46621730#3 -230931459#3 -230931459#0 230931464#2 230931464#1 230931457 24829259#0"/>
    </person>
    <person id="ped11" type="ped_pedestrian" depart="76.29">
        <walk edges="-43912688#0 -43912688#1 -43912688#2 -230931497#0"/>
    </person>
    <person id="ped12" type="ped_pedestrian" depart="83.22">
        <walk edges="43912761#1 -43912666#0 -43912666#1 -43912666#2"/>
    </person>
    <person id="ped14" type="ped_pedestrian" depart="97.09">
        <walk edges="42986605 42986604 -24829259#0 230931457 230931464#1 230931464#2 230931459#0 230931459#1"/>
    </person>
    <person id="ped15" type="ped_pedestrian" depart="104.03">
        <walk edges="42986595#4 46621730#1 46621730#2 46621730#3 -230931459#3 -230931459#0 42133039#0 24829377#1 24829377#3"/>
    </person>
    <person id="ped16" type="ped_pedestrian" depart="110.96">
        <walk edges="217101423 -160726551#3 -231047289#2 -231047289#3 639315111#0 639315111#1 230931464#0 230931464#1 230931464#2 -230931459#0 -230931459#3 46621730#3 46621730#2 46621730#1 46621730#0"/>
    </person>
    <person id="ped17" type="ped_pedestrian" depart="117.90">
        <walk edges="-43912726#0 -43912726#1 186353840#2 230931499 46621730#2 46621730#3 -230931459#3 -230931459#0 230931464#2 230931464#1 230931457 24829259#3 217101442#0 217101442#1 217101442#2"/>
    </person>
    <person id="ped18" type="ped_pedestrian" depart="124.83">
        <walk edges="42986601#1 42986601#0 42986595#1 -42986597 46621730#2 230931465"/>
    </person>
    <person id="ped19" type="ped_pedestrian" depart="131.77">
        <walk edges="43854633#1 -43854553 230931457 230931464#1 230931464#2 230931459#0 230931459#1 42986595#0 42986595#1 -42986601#0 -42986601#1 -42986601#2 217101454"/>
    </person>
    <person id="ped20" type="ped_pedestrian" depart="138.70">
        <walk edges="24829259#3 24829259#0 43854633#3 43854633#4 639315111#1 639315109 164216288#0 230931487 230931456#0 230931456#3 164215846#0 -164215847#1"/>
    </person>
    <person id="ped21" type="ped_pedestrian" depart="145.64">
        <walk edges="-24829299#0 -24829299#1 -164215847#1 164215846#0 230931456#3 230931456#0 230931487 164216288#0 42133039#4 42133039#3 42133039#0 -230931459#0 230931459#1 42986595#0 42986595#1 -42986601#0"/>
    </person>
    <person id="ped22" type="ped_pedestrian" depart="152.57">
        <walk edges="-217101406 43912696#3 -43915485#0 46621730#0 46621730#1 46621730#2 46621730#3 -230931459#3 -230931459#0 42133039#0 42133039#3 42133039#4 164216288#0 230931487 230931456#0 230931456#3 164215846#0 164215846#1 -24829299#2"/>
    </person>
    <person id="ped23" type="ped_pedestrian" depart="159.51">
        <walk edges="-217101442#0 24829259#5 230931459#1 42986595#0 42986595#1 -42986602#1 -42986598#0"/>
    </person>
    <person id="ped24" type="ped_pedestrian" depart="166.44">
        <walk edges="230931497#4 -230931497#5 -43912696#3"/>
    </person>
    <person id="ped25" type="ped_pedestrian" depart="173.38">
        <walk edges="-43912723 43912723 230931498#2 230931498#1 230931498#0 230931465 46621730#2 46621730#3 -230931459#3 -230931459#0 230931464#2 230931464#1 230931464#0 639315111#1 639315111#0 231047289#3 -164216286 -24829229#1"/>
    </person>
    <person id="ped26" type="ped_pedestrian" depart="180.31">
        <walk edges="-31773424#1 -160726551#2 -160726551#3 -231047289#2 -231047289#3 639315111#0 639315111#1 230931464#0 230931464#1 230931464#2 -230931459#0 -230931459#3 46621730#3 46621730#2 230931499 186353840#2 43912726#1"/>
    </person>
    <person id="ped27" type="ped_pedestrian" depart="187.25">
        <walk edges="230931498#1 230931498#0 230931465 46621730#2 46621730#3 -230931459#3 -230931459#0 230931464#2 230931464#1"/>
    </person>
    <person id="ped28" type="ped_pedestrian" depart="194.18">
        <walk edges="-230931497#4 -230931497#5 -43912696#3 -43915485#0 46621730#0 46621730#1 46621730#2 46621730#3 -230931459#3 -230931459#0 42133039#0 24829377#1 24829377#3"/>
    </person>
    <person id="ped29" type="ped_pedestrian" depart="201.12">
        <walk edges="-230931497#2 230931497#2 43912691#1 43912691#0 230931498#1 -43912726#0"/>
    </person>
    <person id="ped30" type="ped_pedestrian" depart="208.05">
        <walk edges="639315109 42133039#4 42133039#3 42133039#0 -230931459#0 -230931459#3 46621730#3 46621730#2 46621730#1 46621730#0 -43915485#0 -43912696#3 230931497#5"/>
    </person>
    <person id="ped31" type="ped_pedestrian" depart="214.99">
        <walk edges="217101444 43854633#2 24829259#0 230931457 230931464#1 230931464#2 230931459#0 230931459#1 42986595#0 42986595#1 -42986602#1 -42986602#0 24797309#0"/>
    </person>
    <person id="ped32" type="ped_pedestrian" depart="221.92">
        <walk edges="42986604 43854633#3 43854633#4 639315111#1 639315109 42133039#4 360892721#4"/>
    </person>
    <person id="ped33" type="ped_pedestrian" depart="228.86">
        <walk edges="-24829299#1 -24829299#2 -164215846#2"/>
    </person>
    <person id="ped34" type="ped_pedestrian" depart="235.79">
        <walk edges="-42986605 -24829229#1 -164216286 231047289#2 160726551#3 160726551#2 -31773424#2"/>
    </person>
    <person id="ped35" type="ped_pedestrian" depart="242.73">
        <walk edges="-24829229#1 -164216286 231047289#3 639315111#0 639315111#1 230931464#0 230931464#1 230931464#2 -230931459#0 -230931459#3 46621730#3 46621730#2 46621730#1 46621730#0 -43915485#0 -43912696#3 -230931497#5 43912733"/>
    </person>
    <person id="ped36" type="ped_pedestrian" depart="249.66">
        <walk edges="43912666#0 43912761#0 43915485#1 43915485#0 46621730#0 46621730#1 46621730#2 46621730#3 -230931459#3 -230931459#0 230931464#2 230931464#1 230931457 -24829259#0 42986604 -42986605"/>
    </person>
    <person id="ped37" type="ped_pedestrian" depart="256.60">
        <walk edges="230931499 46621730#1 46621730#0 -43915485#0"/>
    </person>
    <person id="ped38" type="ped_pedestrian" depart="263.53">
        <walk edges="43912696#0 43912691#0 230931498#1 230931498#0 230931465 46621730#2 46621730#3 -230931459#3 -230931459#0 230931464#2 230931464#1 230931464#0 639315111#1 639315111#0 231047289#3 164216286"/>
    </person>
    <person id="ped39" type="ped_pedestrian" depart="270.47">
        <walk edges="-31773424#1 -160726551#2 -160726551#3 -231047289#2 -231047289#3 164216288#2 164216288#1 164216288#0 42133039#4 360892721#4 360892721#2 360892721#1 217101392 -24829377#6"/>
    </person>
    <person id="ped40" type="ped_pedestrian" depart="277.40">
        <walk edges="217101445 42986601#1 42986601#0 42986595#1 42986595#0 230931459#1 -230931459#0 42133039#0 -24829377#2 -24829383"/>
    </person>
    <person id="ped41" type="ped_pedestrian" depart="284.34">
        <walk edges="230931456#0 230931487 164216288#0 42133039#4 42133039#3 42133039#0 -230931459#0 -230931459#3 46621730#3 46621730#2 46621730#1 46621730#0 -43915485#0 -43912696#3 -230931497#5 43912733 43912688#1"/>
    </person>
    <person id="ped42" type="ped_pedestrian" depart="291.27">
        <walk edges="-43915485#1 -43915485#0 46621730#0 46621730#1 46621730#2 46621730#3 -230931459#3 -230931459#0 230931464#2 230931464#1 230931457 -24829259#3"/>
    </person>
    <person id="ped43" type="ped_pedestrian" depart="298.21">
        <walk edges="639315111#1 43854633#4 43854633#3 43854633#2 217101444 217101402#0"/>
    </person>
    <person id="ped45" type="ped_pedestrian" depart="312.08">
        <walk edges="-217101442#2 -217101442#1 217101442#0 24829259#3 230931457 230931464#1 230931464#2 -230931459#0 -230931459#3 46621730#3 46621730#2 230931465 230931498#0 230931498#1 43912691#0 -43912691#1 230931497#1"/>
    </person>
    <person id="ped46" type="ped_pedestrian" depart="319.01">
        <walk edges="42986595#0 230931459#1 230931459#0 230931464#2 230931464#1 230931464#0 639315111#1 639315111#0 231047289#3 231047289#2 160726551#3"/>
    </person>
    <person id="ped47" type="ped_pedestrian" depart="325.95">
        <walk edges="-217101392 24829377#4 24829377#3 24829377#1 42133039#0 -230931459#0 -230931459#3 46621730#3 46621730#2 230931499 186353840#2 -43912726#1"/>
    </person>
    <person id="ped48" type="ped_pedestrian" depart="332.88">
        <walk edges="639315111#0 639315111#1 230931464#0 230931464#1 230931464#2 230931459#0 230931459#1 42986603 217101417"/>
    </person>
    <person id="ped49" type="ped_pedestrian" depart="339.82">
        <walk edges="43915485#3 43915485#2 43915485#1 43915485#0 46621730#0 46621730#1 46621730#2 46621730#3 -230931459#3 -230931459#0 230931464#2 230931464#1 230931457 -43854553 43854633#1"/>
    </person>
    <person id="ped50" type="ped_pedestrian" depart="346.75">
        <walk edges="-160726551#3 -160726551#2 -31773424#1 230931456#3 164215846#0 -164215847#1 24829299#2"/>
    </person>
    <person id="ped51" type="ped_pedestrian" depart="353.69">
        <walk edges="24797200 164216288#2 -231047289#3 -231047289#2 -160726551#3 217101423"/>
    </person>
    <person id="ped52" type="ped_pedestrian" depart="360.62">
        <walk edges="-31773424#1 -160726551#2 -160726551#3 -231047289#2 -231047289#3 639315111#0 639315111#1 230931464#0 230931464#1 230931464#2 -230931459#0 -230931459#3 46621730#3 46621730#2 46621730#1 46621730#0 -43915485#0 -43912696#3 230931497#5"/>
    </person>
    <person id="ped53" type="ped_pedestrian" depart="367.56">
        <walk edges="-217101442#2 -217101442#1 217101442#0 24829259#3 24829259#0 43854633#3 43854633#4 639315111#1 639315109 164216288#0 230931487 230931456#0 230931456#3 164215846#0"/>
    </person>
    <person id="ped54" type="ped_pedestrian" depart="374.49">
        <walk edges="164215847#1 -164215846#0 230931456#3 230931456#0 230931487 164216288#0 42133039#4 42133039#3 42133039#0 -230931459#0 -230931459#3 46621730#3 46621730#2 46621730#1 46621730#0 43915485#0 43915485#1 43912761#0 43912761#1"/>
    </person>
    <person id="ped55" type="ped_pedestrian" depart="381.43">
        <walk edges="43854633#4 639315111#1 639315109 42133039#4 360892721#4 -24829383"/>
    </person>
    <person id="ped56" type="ped_pedestrian" depart="388.36">
        <walk edges="217101392 360892721#1 360892721#2 360892721#4 42133039#4 164216288#0 164216288#1 164216288#2 -231047289#3 -231047289#2 -231047289#1 -231047289#0"/>
    </person>
    <person id="ped57" type="ped_pedestrian" depart="395.30">
        <walk edges="43912696#0 43912691#0 230931498#1 230931498#0 230931465 46621730#2 46621730#3 -230931459#3 -230931459#0 230931464#2 230931464#1 230931457 -24829259#0 43854633#3"/>
    </person>
    <person id="ped58" type="ped_pedestrian" depart="402.23">
        <walk edges="-42986601#2 -42986601#1 -42986598#1 -42986598#0 42986595#3 42986595#4 43915485#0 -43912696#3 -230931497#5 230931497#4"/>
    </person>
    <person id="ped59" type="ped_pedestrian" depart="409.17">
        <walk edges="230931464#1 230931464#2 -230931459#0 -230931459#3"/>
    </person>
    <person id="ped60" type="ped_pedestrian" depart="416.10">
        <walk edges="31773424#2 160726551#2 160726551#3 231047289#2 231047289#3 639315111#0 639315111#1 230931464#0 230931464#1 230931464#2 -230931459#0 -230931459#3 46621730#3 46621730#2 230931499 186353840#2 186353840#0 217101428"/>
    </person>
    <person id="ped61" type="ped_pedestrian" depart="423.04">
        <walk edges="360892721#4 -24829383 -24829377#2 42133039#0 -230931459#0 230931459#1 42986603 217101417"/>
    </person>
    <person id="ped62" type="ped_pedestrian" depart="429.97">
        <walk edges="-160726551#1 -160726551#2 -160726551#3 -231047289#2 -231047289#3 639315111#0 43854633#4 43854633#3 24829259#0 -43854553"/>
    </person>
    <person id="ped63" type="ped_pedestrian" depart="436.91">
        <walk edges="-162767856#3 -42986600 42986595#3 46621730#1 230931465 230931498#0 43912726#0 43912724"/>
    </person>
    <person id="ped64" type="ped_pedestrian" depart="443.84">
        <walk edges="43912666#0 43912761#0 43915485#1 43915485#0 42986595#4 42986595#3 -42986598#0 -42986598#1 -42986601#1 42986601#2"/>
    </person>
    <person id="ped65" type="ped_pedestrian" depart="450.78">
        <walk edges="-42986602#1 42986595#1 -42986597 46621730#2 230931499 186353840#2 186353840#0 164322006#1 -164322006#0"/>
    </person>
    <person id="ped66" type="ped_pedestrian" depart="457.71">
        <walk edges="43912666#0 43912761#0 -43912688#0 -43912733 -230931497#4 43912740"/>
    </person>
    <person id="ped67" type="ped_pedestrian" depart="464.65">
        <walk edges="-217101413 217101413 217101442#1 217101442#0 24829259#3 230931457 230931464#1 230931464#2 -230931459#0 -230931459#3 46621730#3 46621730#2 230931499 186353840#2 186353840#0"/>
    </person>
    <person id="ped68" type="ped_pedestrian" depart="471.58">
        <walk edges="-217101396 164215846#2 164215846#1 164215846#0 230931456#3 31773424#0 31773424#2"/>
    </person>
    <person id="ped69" type="ped_pedestrian" depart="478.52">
        <walk edges="360892721#0 -24829377#7 24829377#4 24829377#3 24829377#1 42133039#0 -230931459#0 230931459#1 42986595#0 42986595#1 42986601#0 42986601#1 -217101452#1"/>
    </person>
    <person id="ped71" type="ped_pedestrian" depart="492.39">
        <walk edges="-31773424#1 -160726551#2 -160726551#3 -231047289#2 -231047289#3 639315111#0 43854633#4"/>
    </person>
    <person id="ped72" type="ped_pedestrian" depart="499.32">
        <walk edges="162767845#0 -162767856#3 -42986602#0 -42986602#1 42986595#1 42986595#0 230931459#1 230931459#0 230931464#2 230931464#1 230931464#0 639315111#1 639315111#0 231047289#3 -164216286 -24829229#1"/>
    </person>
    <person id="ped73" type="ped_pedestrian" depart="506.26">
        <walk edges="217101428 186353840#0 186353840#2 230931499 46621730#2 46621730#3 -230931459#3 -230931459#0 42133039#0 24829377#1 24829377#3"/>
    </person>
    <person id="ped74" type="ped_pedestrian" depart="513.19">
        <walk edges="-24797309#2 -42986602#0 -42986602#1 42986595#1 42986595#0 230931459#1 230931459#0 230931464#2 230931464#1 230931457 24829259#0 -42986604"/>
    </person>
    <person id="ped75" type="ped_pedestrian" depart="520.13">
        <walk edges="639315111#0 639315111#1 230931464#0 230931464#1 230931464#2 -230931459#0 -230931459#3 46621730#3 46621730#2 230931465 230931498#0 230931498#1"/>
    </person>
    <person id="ped76" type="ped_pedestrian" depart="527.06">
        <walk edges="164215846#1 164215846#0 230931456#3 230931456#0 230931487 164216288#0 42133039#4 42133039#3 42133039#0 -230931459#0 -230931459#3 46621730#3 46621730#2 46621730#1 46621730#0 -43915485#0 43912696#3 217101406"/>
    </person>
    <person id="ped77" type="ped_pedestrian" depart="534.00">
        <walk edges="-217101449#0 217101428 186353840#0 186353840#2 230931499 46621730#2 46621730#3 -230931459#3 -24829269"/>
    </person>
    <person id="ped78" type="ped_pedestrian" depart="540.93">
        <walk edges="-43912688#0 43912733 -230931497#5 -43912696#3 -43915485#0 46621730#0 46621730#1 46621730#2 46621730#3 -230931459#3 -230931459#0 42133039#0 42133039#3 42133039#4 164216288#0 230931487 230931456#0 230931456#3"/>
    </person>
    <person id="ped79" type="ped_pedestrian" depart="547.87">
        <walk edges="-24829299#1 -164215847#1 164215846#0 230931456#3 230931456#0 230931487 164216288#0 639315109 639315111#1 43854633#4 43854633#3 -24829259#0 -24829259#3"/>
    </person>
    <person id="ped80" type="ped_pedestrian" depart="554.80">
        <walk edges="-217101402#0 -217101402#1 42986604 -24829259#0 230931457 230931464#1 230931464#2 -230931459#0 -230931459#3 46621730#3 46621730#2 46621730#1 46621730#0 -43915485#0 -43912696#3 -230931497#5 230931497#4 230931497#3 230931497#2"/>
    </person>
    <person id="ped81" type="ped_pedestrian" depart="561.74">
        <walk edges="-24829299#1 -164215847#1 164215846#0 230931456#3 230931456#0 230931487 164216288#0 42133039#4 42133039#3 42133039#0 -230931459#0 -230931459#3 46621730#3 46621730#2 230931465 230931498#0 230931498#1 43912691#0"/>
    </person>
    <person id="ped82" type="ped_pedestrian" depart="568.67">
        <walk edges="43854633#0 43854633#1 -217101444 -217101402#0"/>
    </person>
    <person id="ped83" type="ped_pedestrian" depart="575.61">
        <walk edges="-24829377#2 -24829383 360892721#4 42133039#4 639315109 639315111#1 639315111#0 231047289#3 231047289#2 231047289#1"/>
    </person>
    <person id="ped84" type="ped_pedestrian" depart="582.54">
        <walk edges="-24829259#0 230931457 230931464#1 230931464#2 230931459#0 230931459#1 42986595#0 42986595#1 -42986601#0 -42986601#1 -42986601#2 -217101454"/>
    </person>
    <person id="ped85" type="ped_pedestrian" depart="589.48">
        <walk edges="43912726#1 186353840#2 230931499 46621730#2 -42986597 42986595#1 42986601#0 42986601#1 217101452#1"/>
    </person>
    <person id="ped86" type="ped_pedestrian" depart="596.41">
        <walk edges="164216288#2 164216288#1 164216288#0 42133039#4 42133039#3"/>
    </person>
    <person id="ped87" type="ped_pedestrian" depart="603.35">
        <walk edges="42986595#4 46621730#1 46621730#2 46621730#3 -230931459#3 -230931459#0 230931464#2 230931464#1 230931464#0 639315111#1 639315111#0 -231047289#3"/>
    </person>
    <person id="ped88" type="ped_pedestrian" depart="610.28">
        <walk edges="-217101428 186353840#0 186353840#2 230931499 46621730#1 42986595#3 -42986600 162767856#1"/>
    </person>
    <person id="ped89" type="ped_pedestrian" depart="617.22">
        <walk edges="162767845#0 -162767856#3 -42986602#0 -42986602#1 42986595#1 42986595#0 230931459#1 -230931459#0 42133039#0 42133039#3 42133039#4 164216288#0 164216288#1"/>
    </person>
    <person id="ped90" type="ped_pedestrian" depart="624.15">
        <walk edges="24829377#3 24829383 360892721#4 42133039#4 639315109 639315111#1 639315111#0 231047289#3 231047289#2"/>
    </person>
    <person id="ped91" type="ped_pedestrian" depart="631.09">
        <walk edges="46621730#2 230931499 186353840#2 186353840#0 -217101428"/>
    </person>
    <person id="ped92" type="ped_pedestrian" depart="638.02">
        <walk edges="-43915485#1 -43912688#0"/>
    </person>
    <person id="ped93" type="ped_pedestrian" depart="644.96">
        <walk edges="43854633#1 43854633#2 43854633#3 43854633#4 639315111#1 639315109 42133039#4 360892721#4 360892721#2 360892721#1 360892721#0 -24829377#7"/>
    </person>
    <person id="ped94" type="ped_pedestrian" depart="651.89">
        <walk edges="-231047289#3 164216288#2 -24797200 -230931456#2 230931456#3 164215846#0 164215846#1 164215846#2 164215846#3"/>
    </person>
    <person id="ped95" type="ped_pedestrian" depart="658.83">
        <walk edges="160726551#3 231047289#2 231047289#3 639315111#0 639315111#1 230931464#0 230931464#1 230931464#2 230931459#0 230931459#1 42986595#0 42986595#1 -42986602#1 -42986598#0"/>
    </person>
    <person id="ped96" type="ped_pedestrian" depart="665.76">
        <walk edges="-24829377#7 24829377#4 24829377#3 24829377#1 42133039#0 -230931459#0 -230931459#3 46621730#3 46621730#2 230931465 230931498#0 230931498#1 230931498#2 43912723"/>
    </person>
    <person id="ped97" type="ped_pedestrian" depart="672.70">
        <walk edges="164215846#2 164215846#1 164215846#0 230931456#3 230931456#0 230931487 164216288#0 639315109 639315111#1 43854633#4 43854633#3 43854633#2 43854633#1"/>
    </person>
    <person id="ped99" type="ped_pedestrian" depart="686.57">
        <walk edges="639315111#1 230931464#0 230931464#1 230931464#2 230931459#0 230931459#1 42986595#0 42986595#1 42986601#0 42986601#1 42986601#2 42986601#3"/>
    </person>
    <person id="ped100" type="ped_pedestrian" depart="693.50">
        <walk edges="43915485#3 43915485#2 43915485#1 43915485#0 46621730#0 46621730#1 230931465 230931498#0 43912726#0 43912724"/>
    </person>
    <person id="ped101" type="ped_pedestrian" depart="700.44">
        <walk edges="42986605 42986604 -24829259#0 230931457 230931464#1 230931464#2 -230931459#0 -230931459#3 46621730#3 46621730#2 46621730#1 46621730#0 -43915485#0 -43912696#3 -230931497#5 -230931497#4 -230931497#3 -230931497#2"/>
    </person>
    <person id="ped102" type="ped_pedestrian" depart="707.37">
        <walk edges="186353840#0 186353840#2 230931499 46621730#2 46621730#3 -230931459#3 -230931459#0 230931464#2 230931464#1 230931457 -24829259#0"/>
    </person>
    <person id="ped103" type="ped_pedestrian" depart="714.31">
        <walk edges="-43915485#1 -43915485#0 46621730#0 46621730#1 46621730#2 46621730#3 -230931459#3 -230931459#0 230931464#2 230931464#1 230931464#0 639315111#1 639315111#0 231047289#3 231047289#2 -231047289#1 -217101390"/>
    </person>
    <person id="ped104" type="ped_pedestrian" depart="721.24">
        <walk edges="-43912726#0 -43912726#1 186353840#2 230931499 46621730#2 46621730#3"/>
    </person>
    <person id="ped105" type="ped_pedestrian" depart="728.18">
        <walk edges="-31773424#1 -160726551#2 -160726551#3 -231047289#2 -231047289#3 164216288#2 164216288#1 164216288#0 42133039#4 42133039#3"/>
    </person>
    <person id="ped106" type="ped_pedestrian" depart="735.11">
        <walk edges="164215847#1 -164215846#0 230931456#3 230931456#0 230931487 164216288#0 42133039#4 42133039#3 42133039#0 -230931459#0 230931459#1 42986595#0 42986595#1 -42986602#1 -42986602#0 -162767856#3 162767845#0"/>
    </person>
    <person id="ped107" type="ped_pedestrian" depart="742.05">
        <walk edges="43912761#1 43912761#0 43915485#1 43915485#0 46621730#0 46621730#1 46621730#2 46621730#3 -230931459#3 -230931459#0 230931464#2 230931464#1 230931464#0 639315111#1 639315111#0"/>
    </person>
    <person id="ped108" type="ped_pedestrian" depart="748.98">
        <walk edges="217101444 43854633#2 43854633#3 43854633#4 639315111#1 639315109 164216288#0 230931487 230931456#0 230931456#3 164215846#0 -164215847#1 24829299#2"/>
    </person>
    <person id="ped109" type="ped_pedestrian" depart="755.92">
        <walk edges="-230931459#3 42986595#0 42986595#1 -42986601#0 -42986601#1 -42986601#2"/>
    </person>
    <person id="ped110" type="ped_pedestrian" depart="762.85">
        <walk edges="43915485#2 43915485#1 43915485#0 46621730#0 46621730#1 230931499 186353840#2 186353840#0 230931455#1"/>
    </person>
    <person id="ped111" type="ped_pedestrian" depart="769.79">
        <walk edges="217101428 186353840#0 186353840#2 230931499 46621730#2 46621730#3 -230931459#3 -230931459#0 42133039#0 24829377#1 24829377#3 24829377#4 24829377#7 -24829379 24829379"/>
    </person>
    <person id="ped112" type="ped_pedestrian" depart="776.72">
        <walk edges="-164322006#0 164322006#1 186353840#0 186353840#2 230931499 46621730#2 46621730#3 -230931459#3 -230931459#0 42133039#0 42133039#3 42133039#4 164216288#0 230931487 230931456#0"/>
    </person>
    <person id="ped113" type="ped_pedestrian" depart="783.66">
        <walk edges="217101392 360892721#1 360892721#2 360892721#4 42133039#4 639315109 639315111#1 43854633#4 43854633#3 43854633#2 43854633#1 43854553"/>
    </person>
    <person id="ped114" type="ped_pedestrian" depart="790.59">
        <walk edges="-230931497#0 -230931497#1 -230931497#2 -230931497#3 -230931497#4 -230931497#5 -43912696#3 43915485#0"/>
    </person>
    <person id="ped115" type="ped_pedestrian" depart="797.53">
        <walk edges="-217101406 43912696#3 -43915485#0 46621730#0 46621730#1 46621730#2 46621730#3 -230931459#3 -230931459#0 230931464#2 230931464#1 230931464#0 639315111#1 639315111#0 231047289#3 231047289#2 -231047289#1"/>
    </person>
    <person id="ped116" type="ped_pedestrian" depart="804.46">
        <walk edges="230931457 230931464#0 639315111#1 639315111#0 231047289#3"/>
    </person>
    <person id="ped117" type="ped_pedestrian" depart="811.40">
        <walk edges="-24829299#2 164215846#1 164215846#0 230931456#3 230931456#0 230931487 164216288#0 42133039#4 42133039#3 42133039#0 -230931459#0 230931459#1 42986595#0 42986595#1 42986601#0 42986601#1 217101445 -217101445"/>
    </person>
    <person id="ped118" type="ped_pedestrian" depart="818.33">
        <walk edges="43912674 43912666#1 -43915485#2 -43915485#1 -43915485#0 46621730#0 46621730#1 46621730#2 46621730#3 -230931459#3 -230931459#0 42133039#0 24829377#1 24829377#3 -24829377#6"/>
    </person>
    <person id="ped119" type="ped_pedestrian" depart="825.27">
        <walk edges="230931457 230931464#1 230931464#2 -230931459#0 -230931459#3 46621730#3 46621730#2 230931465"/>
    </person>
    <person id="ped120" type="ped_pedestrian" depart="832.20">
        <walk edges="160726551#3 -231047289#2 -231047289#3 164216288#2 -24797200 230931456#0"/>
    </person>
    <person id="ped121" type="ped_pedestrian" depart="839.14">
        <walk edges="217101407 217101442#0 24829259#3 230931457 230931464#1 230931464#2 -230931459#0 -230931459#3 46621730#3 46621730#2 230931499 186353840#2 43912726#1"/>
    </person>
    <person id="ped122" type="ped_pedestrian" depart="846.07">
        <walk edges="-24829226 -24829229#1 -164216286 -231047289#3 164216288#2 -24797200 -230931456#2 230931456#3 -164215846#0 164215847#1 24829299#1"/>
    </person>
    <person id="ped123" type="ped_pedestrian" depart="853.01">
        <walk edges="-24829377#2 42133039#0 -230931459#0 -230931459#3 46621730#3 46621730#2 46621730#1 46621730#0 -43915485#0"/>
    </person>
    <person id="ped124" type="ped_pedestrian" depart="859.94">
        <walk edges="231047289#2 231047289#3 639315111#0 639315111#1 230931464#0 230931464#1 230931464#2 230931459#0 230931459#1 42986595#0 42986595#1 -42986601#0 -42986601#1 -42986601#2 -42986601#3"/>
    </person>
    <person id="ped125" type="ped_pedestrian" depart="866.88">
        <walk edges="-42986605 24829229#1 43854633#4 639315111#1 639315109 42133039#4 360892721#4 360892721#2 24829381"/>
    </person>
    <person id="ped126" type="ped_pedestrian" depart="873.81">
        <walk edges="-217101402#0 -217101402#1 -42986605 -24829229#1 164216286"/>
    </person>
    <person id="ped127" type="ped_pedestrian" depart="880.75">
        <walk edges="639315111#1 639315111#0"/>
    </person>
    <person id="ped128" type="ped_pedestrian" depart="887.68">
        <walk edges="-217101402#0 -217101402#1 -42986605 -24829229#1"/>
    </person>
    <person id="ped129" type="ped_pedestrian" depart="894.62">
        <walk edges="-31773424#1 -160726551#2 -160726551#3 -231047289#2 -231047289#3 639315111#0 639315111#1 230931464#0 230931464#1 230931464#2 -230931459#0 -230931459#3 46621730#3 46621730#2 230931465 230931498#0 43912726#0"/>
    </person>