<?xml version="1.0" encoding="UTF-8"?>

<!-- generated on Mon Oct  5 00:23:22 2020 by Eclipse SUMO netconvert Version 1.7.0
<configuration xmlns:xsi="http://www.w3.org/2001/XMLSchema-instance" xsi:noNamespaceSchemaLocation="http://sumo.dlr.de/xsd/netconvertConfiguration.xsd">

    <input>
        <type-files value="/usr/share/sumo/data/typemap/osmNetconvert.typ.xml,/usr/share/sumo/data/typemap/osmNetconvertUrbanDe.typ.xml,/usr/share/sumo/data/typemap/osmNetconvertPedestrians.typ.xml"/>
        <osm-files value="osm_bbox.osm.xml"/>
    </input>

    <output>
        <output-file value="osm.net.xml"/>
        <output.street-names value="true"/>
        <output.original-names value="true"/>
    </output>

    <projection>
        <proj.utm value="true"/>
    </projection>

    <processing>
        <geometry.remove value="true"/>
        <roundabouts.guess value="true"/>
    </processing>

    <tls_building>
        <tls.discard-simple value="true"/>
        <tls.join value="true"/>
        <tls.guess-signals value="true"/>
        <tls.default-type value="actuated"/>
    </tls_building>

    <ramp_guessing>
        <ramps.guess value="true"/>
    </ramp_guessing>

    <edge_removal>
        <keep-edges.by-vclass value="passenger"/>
    </edge_removal>

    <junctions>
        <junctions.join value="true"/>
        <junctions.corner-detail value="5"/>
    </junctions>

    <pedestrian>
        <crossings.guess value="true"/>
    </pedestrian>

    <report>
        <verbose value="true"/>
        <aggregate-warnings value="5"/>
    </report>

</configuration>
-->

<net version="1.6" junctionCornerDetail="5" walkingareas="true" limitTurnSpeed="5.50" xmlns:xsi="http://www.w3.org/2001/XMLSchema-instance" xsi:noNamespaceSchemaLocation="http://sumo.dlr.de/xsd/net_file.xsd">

    <location netOffset="-670652.29,-4549535.22" convBoundary="0.00,0.00,1822.26,1226.51" origBoundary="29.031496,41.079180,29.055072,41.089903" projParameter="+proj=utm +zone=35 +ellps=WGS84 +datum=WGS84 +units=m +no_defs"/>

    <type id="highway.bridleway" priority="1" numLanes="1" speed="2.78" allow="pedestrian" oneway="1" width="2.00"/>
    <type id="highway.bus_guideway" priority="1" numLanes="1" speed="13.89" allow="bus" oneway="1"/>
    <type id="highway.cycleway" priority="1" numLanes="1" speed="8.33" allow="bicycle" oneway="0" width="1.00"/>
    <type id="highway.footway" priority="1" numLanes="1" speed="2.78" allow="pedestrian" oneway="1" width="2.00"/>
    <type id="highway.ford" priority="1" numLanes="1" speed="2.78" allow="army" oneway="0"/>
    <type id="highway.living_street" priority="2" numLanes="1" speed="2.78" disallow="tram rail_urban rail rail_electric rail_fast ship" oneway="0"/>
    <type id="highway.motorway" priority="14" numLanes="2" speed="27.78" allow="private emergency authority army vip passenger hov taxi bus coach delivery truck trailer motorcycle evehicle custom1 custom2" oneway="1"/>
    <type id="highway.motorway_link" priority="9" numLanes="1" speed="16.67" allow="private emergency authority army vip passenger hov taxi bus coach delivery truck trailer motorcycle evehicle custom1 custom2" oneway="1"/>
    <type id="highway.path" priority="1" numLanes="1" speed="2.78" allow="pedestrian bicycle" oneway="1" width="2.00"/>
    <type id="highway.pedestrian" priority="1" numLanes="1" speed="2.78" allow="pedestrian" oneway="1" width="2.00"/>
    <type id="highway.primary" priority="12" numLanes="2" speed="13.89" disallow="pedestrian tram rail_urban rail rail_electric rail_fast ship" oneway="0" sidewalkWidth="3.00"/>
    <type id="highway.primary_link" priority="7" numLanes="1" speed="13.89" disallow="pedestrian tram rail_urban rail rail_electric rail_fast ship" oneway="0" sidewalkWidth="3.00"/>
    <type id="highway.raceway" priority="15" numLanes="2" speed="83.33" allow="vip" oneway="0"/>
    <type id="highway.residential" priority="3" numLanes="1" speed="13.89" disallow="pedestrian tram rail_urban rail rail_electric rail_fast ship" oneway="0" sidewalkWidth="2.00"/>
    <type id="highway.secondary" priority="11" numLanes="1" speed="13.89" disallow="pedestrian tram rail_urban rail rail_electric rail_fast ship" oneway="0" sidewalkWidth="3.00"/>
    <type id="highway.secondary_link" priority="6" numLanes="1" speed="13.89" disallow="pedestrian tram rail_urban rail rail_electric rail_fast ship" oneway="0" sidewalkWidth="3.00"/>
    <type id="highway.service" priority="1" numLanes="1" speed="5.56" allow="pedestrian delivery bicycle" oneway="0"/>
    <type id="highway.stairs" priority="1" numLanes="1" speed="1.39" allow="pedestrian" oneway="1" width="2.00"/>
    <type id="highway.step" priority="1" numLanes="1" speed="1.39" allow="pedestrian" oneway="1" width="2.00"/>
    <type id="highway.steps" priority="1" numLanes="1" speed="1.39" allow="pedestrian" oneway="1" width="2.00"/>
    <type id="highway.tertiary" priority="10" numLanes="1" speed="13.89" disallow="pedestrian tram rail_urban rail rail_electric rail_fast ship" oneway="0" sidewalkWidth="3.00"/>
    <type id="highway.tertiary_link" priority="5" numLanes="1" speed="13.89" disallow="pedestrian tram rail_urban rail rail_electric rail_fast ship" oneway="0" sidewalkWidth="2.00"/>
    <type id="highway.track" priority="1" numLanes="1" speed="5.56" allow="pedestrian motorcycle moped bicycle" oneway="0"/>
    <type id="highway.trunk" priority="13" numLanes="2" speed="13.89" disallow="pedestrian bicycle tram rail_urban rail rail_electric rail_fast ship" oneway="0"/>
    <type id="highway.trunk_link" priority="8" numLanes="1" speed="13.89" disallow="pedestrian bicycle tram rail_urban rail rail_electric rail_fast ship" oneway="0"/>
    <type id="highway.unclassified" priority="4" numLanes="1" speed="13.89" disallow="pedestrian tram rail_urban rail rail_electric rail_fast ship" oneway="0" sidewalkWidth="2.00"/>
    <type id="highway.unsurfaced" priority="1" numLanes="1" speed="8.33" disallow="tram rail_urban rail rail_electric rail_fast ship" oneway="0"/>
    <type id="railway.highspeed" priority="21" numLanes="1" speed="69.44" allow="rail_fast" oneway="1"/>
    <type id="railway.light_rail" priority="19" numLanes="1" speed="27.78" allow="rail_urban" oneway="1"/>
    <type id="railway.preserved" priority="16" numLanes="1" speed="27.78" allow="rail" oneway="1"/>
    <type id="railway.rail" priority="20" numLanes="1" speed="44.44" allow="rail" oneway="1"/>
    <type id="railway.subway" priority="18" numLanes="1" speed="27.78" allow="rail_urban" oneway="1"/>
    <type id="railway.tram" priority="17" numLanes="1" speed="13.89" allow="tram" oneway="1"/>

    <edge id=":1727696174_0" function="internal">
        <lane id=":1727696174_0_0" index="0" disallow="pedestrian tram rail_urban rail rail_electric rail_fast ship" speed="3.65" length="4.67" shape="401.90,666.74 400.49,666.42 399.83,665.82 399.91,664.93 400.74,663.75"/>
    </edge>
    <edge id=":1727696174_w0" function="walkingarea">
        <lane id=":1727696174_w0_0" index="0" allow="pedestrian" speed="1.00" length="8.40" width="2.00" shape="400.17,662.26 399.45,660.39 403.20,670.10 402.47,668.23"/>
    </edge>
    <edge id=":1745943191_0" function="internal">
        <lane id=":1745943191_0_0" index="0" disallow="pedestrian tram rail_urban rail rail_electric rail_fast ship" speed="3.65" length="4.67" shape="1582.05,601.50 1582.72,602.78 1582.68,603.68 1581.95,604.19 1580.51,604.31"/>
    </edge>
    <edge id=":1745943191_w0" function="walkingarea">
        <lane id=":1745943191_w0_0" index="0" allow="pedestrian" speed="1.00" length="8.40" width="2.00" shape="1579.74,605.71 1578.77,607.46 1583.79,598.35 1582.83,600.10"/>
    </edge>
    <edge id=":1745943289_0" function="internal">
        <lane id=":1745943289_0_0" index="0" disallow="pedestrian tram rail_urban rail rail_electric rail_fast ship" speed="3.65" length="4.67" shape="1671.04,568.88 1672.38,569.42 1672.94,570.12 1672.71,570.98 1671.69,572.01"/>
    </edge>
    <edge id=":1745943289_w0" function="walkingarea">
        <lane id=":1745943289_w0_0" index="0" allow="pedestrian" speed="1.00" length="8.40" width="2.00" shape="1672.02,573.58 1672.43,575.53 1670.31,565.35 1670.72,567.31"/>
    </edge>
    <edge id=":1758687226_0" function="internal">
        <lane id=":1758687226_0_0" index="0" disallow="pedestrian tram rail_urban rail rail_electric rail_fast ship" speed="11.27" length="9.96" shape="582.32,826.47 580.41,825.53 577.50,825.14 573.58,825.30 572.62,825.44"/>
    </edge>
    <edge id=":1758687226_1" function="internal">
        <lane id=":1758687226_1_0" index="0" disallow="pedestrian tram rail_urban rail rail_electric rail_fast ship" speed="13.89" length="16.40" shape="582.32,826.47 578.67,823.25 576.27,820.94 573.96,818.53 570.59,815.02"/>
    </edge>
    <edge id=":1758687226_2" function="internal">
        <lane id=":1758687226_2_0" index="0" disallow="pedestrian tram rail_urban rail rail_electric rail_fast ship" speed="3.65" length="2.34" shape="582.32,826.47 581.93,825.08 582.15,824.21"/>
    </edge>
    <edge id=":1758687226_9" function="internal">
        <lane id=":1758687226_9_0" index="0" disallow="pedestrian tram rail_urban rail rail_electric rail_fast ship" speed="11.27" length="4.00" shape="572.62,825.44 568.66,826.01"/>
    </edge>
    <edge id=":1758687226_10" function="internal">
        <lane id=":1758687226_10_0" index="0" disallow="pedestrian tram rail_urban rail rail_electric rail_fast ship" speed="3.65" length="2.34" shape="582.15,824.21 582.97,823.86 584.41,824.04"/>
    </edge>
    <edge id=":1758687226_3" function="internal">
        <lane id=":1758687226_3_0" index="0" disallow="pedestrian tram rail_urban rail rail_electric rail_fast ship" speed="13.89" length="16.12" shape="572.88,812.78 576.20,816.24 578.46,818.61 580.82,820.88 584.41,824.04"/>
    </edge>
    <edge id=":1758687226_4" function="internal">
        <lane id=":1758687226_4_0" index="0" disallow="pedestrian tram rail_urban rail rail_electric rail_fast ship" speed="7.83" length="7.50" shape="572.88,812.78 576.49,817.58 576.69,819.06"/>
    </edge>
    <edge id=":1758687226_5" function="internal">
        <lane id=":1758687226_5_0" index="0" disallow="pedestrian tram rail_urban rail rail_electric rail_fast ship" speed="3.65" length="2.34" shape="572.88,812.78 573.15,814.20 572.85,815.05"/>
    </edge>
    <edge id=":1758687226_11" function="internal">
        <lane id=":1758687226_11_0" index="0" disallow="pedestrian tram rail_urban rail rail_electric rail_fast ship" speed="7.83" length="12.19" shape="576.69,819.06 576.99,821.39 574.38,824.20 568.66,826.01"/>
    </edge>
    <edge id=":1758687226_12" function="internal">
        <lane id=":1758687226_12_0" index="0" disallow="pedestrian tram rail_urban rail rail_electric rail_fast ship" speed="3.65" length="2.34" shape="572.85,815.05 572.00,815.32 570.59,815.02"/>
    </edge>
    <edge id=":1758687226_6" function="internal">
        <lane id=":1758687226_6_0" index="0" disallow="pedestrian tram rail_urban rail rail_electric rail_fast ship" speed="6.18" length="11.67" shape="568.09,822.86 571.48,821.79 573.03,820.12 572.73,817.86 570.59,815.02"/>
    </edge>
    <edge id=":1758687226_7" function="internal">
        <lane id=":1758687226_7_0" index="0" disallow="pedestrian tram rail_urban rail rail_electric rail_fast ship" speed="12.31" length="16.77" shape="568.09,822.86 573.74,822.10 578.34,822.04 581.90,822.68 584.41,824.04"/>
    </edge>
    <edge id=":1758687226_8" function="internal">
        <lane id=":1758687226_8_0" index="0" disallow="pedestrian tram rail_urban rail rail_electric rail_fast ship" speed="3.65" length="4.67" shape="568.09,822.86 569.41,823.44 569.94,824.15 569.69,825.01 568.66,826.01"/>
    </edge>
    <edge id=":1758687226_c0" function="crossing" crossingEdges="164215846#2 -164215846#2">
        <lane id=":1758687226_c0_0" index="0" allow="pedestrian" speed="1.00" length="6.40" width="4.00" shape="583.93,821.52 579.76,826.38"/>
    </edge>
    <edge id=":1758687226_c1" function="crossing" crossingEdges="-164215846#1 164215846#1">
        <lane id=":1758687226_c1_0" index="0" allow="pedestrian" speed="1.00" length="6.40" width="4.00" shape="570.84,817.57 575.42,813.10"/>
    </edge>
    <edge id=":1758687226_c2" function="crossing" crossingEdges="-24829299#2 24829299#2">
        <lane id=":1758687226_c2_0" index="0" allow="pedestrian" speed="1.00" length="6.40" width="4.00" shape="570.91,827.23 569.77,820.93"/>
    </edge>
    <edge id=":1758687226_w0" function="walkingarea">
        <lane id=":1758687226_w0_0" index="0" allow="pedestrian" speed="1.00" length="7.59" width="4.00" shape="568.94,827.59 569.30,829.56 579.98,829.20 581.28,827.68 580.32,827.14 578.91,826.81 577.08,826.70 574.80,826.78 572.09,827.08"/>
    </edge>
    <edge id=":1758687226_w1" function="walkingarea">
        <lane id=":1758687226_w1_0" index="0" allow="pedestrian" speed="1.00" length="10.04" width="4.00" shape="585.45,822.82 586.75,821.31 575.46,810.27 574.03,811.67 576.39,814.12 578.12,815.94 579.56,817.44 581.03,818.89 582.89,820.59"/>
    </edge>
    <edge id=":1758687226_w2" function="walkingarea">
        <lane id=":1758687226_w2_0" index="0" allow="pedestrian" speed="1.00" length="3.35" width="4.00" shape="569.45,816.14 568.01,817.53 567.44,819.32 567.80,821.29 569.42,820.86 570.50,820.26 571.05,819.49 571.05,818.54 570.52,817.43"/>
    </edge>
    <edge id=":1758687228_0" function="internal">
        <lane id=":1758687228_0_0" index="0" disallow="pedestrian tram rail_urban rail rail_electric rail_fast ship" speed="6.18" length="6.84" shape="562.93,807.18 560.34,805.15 558.14,804.79 557.08,805.56"/>
    </edge>
    <edge id=":1758687228_1" function="internal">
        <lane id=":1758687228_1_0" index="0" disallow="pedestrian tram rail_urban rail rail_electric rail_fast ship" speed="13.89" length="15.32" shape="562.93,807.18 559.69,803.98 557.45,801.78 555.50,799.36 553.14,795.50"/>
    </edge>
    <edge id=":1758687228_2" function="internal">
        <lane id=":1758687228_2_0" index="0" disallow="pedestrian tram rail_urban rail rail_electric rail_fast ship" speed="3.65" length="2.34" shape="562.93,807.18 562.67,805.76 562.96,804.91"/>
    </edge>
    <edge id=":1758687228_9" function="internal">
        <lane id=":1758687228_9_0" index="0" disallow="pedestrian tram rail_urban rail rail_electric rail_fast ship" speed="6.18" length="4.21" shape="557.08,805.56 556.33,806.10 554.92,809.07"/>
    </edge>
    <edge id=":1758687228_10" function="internal">
        <lane id=":1758687228_10_0" index="0" disallow="pedestrian tram rail_urban rail rail_electric rail_fast ship" speed="3.65" length="2.34" shape="562.96,804.91 563.81,804.64 565.22,804.94"/>
    </edge>
    <edge id=":1758687228_3" function="internal">
        <lane id=":1758687228_3_0" index="0" disallow="pedestrian tram rail_urban rail rail_electric rail_fast ship" speed="13.89" length="14.50" shape="555.92,793.93 558.17,797.57 560.02,799.85 562.15,801.93 565.22,804.94"/>
    </edge>
    <edge id=":1758687228_4" function="internal">
        <lane id=":1758687228_4_0" index="0" disallow="pedestrian tram rail_urban rail rail_electric rail_fast ship" speed="12.51" length="4.69" shape="555.92,793.93 556.78,796.49 556.85,798.48"/>
    </edge>
    <edge id=":1758687228_5" function="internal">
        <lane id=":1758687228_5_0" index="0" disallow="pedestrian tram rail_urban rail rail_electric rail_fast ship" speed="3.65" length="2.34" shape="555.92,793.93 555.82,795.37 555.32,796.11"/>
    </edge>
    <edge id=":1758687228_11" function="internal">
        <lane id=":1758687228_11_0" index="0" disallow="pedestrian tram rail_urban rail rail_electric rail_fast ship" speed="12.51" length="10.82" shape="556.85,798.48 556.90,799.88 556.28,804.07 554.92,809.07"/>
    </edge>
    <edge id=":1758687228_12" function="internal">
        <lane id=":1758687228_12_0" index="0" disallow="pedestrian tram rail_urban rail rail_electric rail_fast ship" speed="3.65" length="2.34" shape="555.32,796.11 554.43,796.15 553.14,795.50"/>
    </edge>
    <edge id=":1758687228_6" function="internal">
        <lane id=":1758687228_6_0" index="0" disallow="pedestrian tram rail_urban rail rail_electric rail_fast ship" speed="11.44" length="12.90" shape="551.88,808.10 553.09,803.76 553.70,800.21 553.72,797.46 553.14,795.50"/>
    </edge>
    <edge id=":1758687228_7" function="internal">
        <lane id=":1758687228_7_0" index="0" disallow="pedestrian tram rail_urban rail rail_electric rail_fast ship" speed="7.79" length="18.41" shape="551.88,808.10 554.23,803.14 557.23,800.96 560.90,801.56 565.22,804.94"/>
    </edge>
    <edge id=":1758687228_8" function="internal">
        <lane id=":1758687228_8_0" index="0" disallow="pedestrian tram rail_urban rail rail_electric rail_fast ship" speed="3.65" length="4.67" shape="551.88,808.10 553.00,807.20 553.89,807.06 554.53,807.69 554.92,809.07"/>
    </edge>
    <edge id=":1758687228_c0" function="crossing" crossingEdges="164215846#1 -164215846#1">
        <lane id=":1758687228_c0_0" index="0" allow="pedestrian" speed="1.00" length="6.40" width="4.00" shape="564.97,802.39 560.39,806.86"/>
    </edge>
    <edge id=":1758687228_c1" function="crossing" crossingEdges="-164215846#0 164215846#0">
        <lane id=":1758687228_c1_0" index="0" allow="pedestrian" speed="1.00" length="6.40" width="4.00" shape="552.73,798.03 558.30,794.88"/>
    </edge>
    <edge id=":1758687228_c2" function="crossing" crossingEdges="-164215847#1 164215847#1">
        <lane id=":1758687228_c2_0" index="0" allow="pedestrian" speed="1.00" length="6.40" width="4.00" shape="557.06,807.65 550.96,805.71"/>
    </edge>
    <edge id=":1758687228_w0" function="walkingarea">
        <lane id=":1758687228_w0_0" index="0" allow="pedestrian" speed="1.00" length="3.36" width="4.00" shape="556.45,809.56 558.35,810.17 560.36,809.69 561.79,808.29 560.61,807.27 559.54,806.74 558.59,806.70 557.76,807.16 557.05,808.11"/>
    </edge>
    <edge id=":1758687228_w1" function="walkingarea">
        <lane id=":1758687228_w1_0" index="0" allow="pedestrian" speed="1.00" length="8.70" width="4.00" shape="566.37,803.82 567.80,802.43 559.06,792.15 557.32,793.14 558.85,795.70 560.11,797.50 561.30,798.89 562.61,800.18 564.24,801.72"/>
    </edge>
    <edge id=":1758687228_w2" function="walkingarea">
        <lane id=":1758687228_w2_0" index="0" allow="pedestrian" speed="1.00" length="6.96" width="4.00" shape="551.75,796.29 550.01,797.27 548.44,807.01 550.35,807.62 551.17,804.85 551.75,802.44 552.10,800.37 552.22,798.66 552.10,797.30"/>
    </edge>
    <edge id=":1758687238_0" function="internal">
        <lane id=":1758687238_0_0" index="0" disallow="pedestrian tram rail_urban rail rail_electric rail_fast ship" speed="3.65" length="4.67" shape="522.57,1102.98 521.41,1103.82 520.52,1103.92 519.91,1103.26 519.58,1101.86"/>
    </edge>
    <edge id=":1758687238_w0" function="walkingarea">
        <lane id=":1758687238_w0_0" index="0" allow="pedestrian" speed="1.00" length="8.40" width="2.00" shape="518.08,1101.30 516.20,1100.61 525.95,1104.23 524.07,1103.53"/>
    </edge>
    <edge id=":1758687241_0" function="internal">
        <lane id=":1758687241_0_0" index="0" disallow="pedestrian tram rail_urban rail rail_electric rail_fast ship" speed="6.19" length="6.58" shape="528.10,1060.99 527.34,1057.89 525.86,1056.25 524.69,1056.15"/>
    </edge>
    <edge id=":1758687241_1" function="internal">
        <lane id=":1758687241_1_0" index="0" disallow="pedestrian tram rail_urban rail rail_electric rail_fast ship" speed="13.89" length="14.95" shape="528.10,1060.99 527.54,1056.58 527.16,1053.53 527.22,1050.50 527.96,1046.17"/>
    </edge>
    <edge id=":1758687241_2" function="internal">
        <lane id=":1758687241_2_0" index="0" disallow="pedestrian tram rail_urban rail rail_electric rail_fast ship" speed="3.65" length="2.34" shape="528.10,1060.99 528.77,1059.72 529.52,1059.24"/>
    </edge>
    <edge id=":1758687241_9" function="internal">
        <lane id=":1758687241_9_0" index="0" disallow="pedestrian tram rail_urban rail rail_electric rail_fast ship" speed="6.19" length="4.23" shape="524.69,1056.15 523.66,1056.06 520.73,1057.34"/>
    </edge>
    <edge id=":1758687241_10" function="internal">
        <lane id=":1758687241_10_0" index="0" disallow="pedestrian tram rail_urban rail rail_electric rail_fast ship" speed="3.65" length="2.34" shape="529.52,1059.24 530.36,1059.55 531.28,1060.66"/>
    </edge>
    <edge id=":1758687241_3" function="internal">
        <lane id=":1758687241_3_0" index="0" disallow="pedestrian tram rail_urban rail rail_electric rail_fast ship" speed="13.89" length="13.94" shape="531.09,1046.84 530.41,1050.88 530.38,1053.71 530.75,1056.55 531.28,1060.66"/>
    </edge>
    <edge id=":1758687241_4" function="internal">
        <lane id=":1758687241_4_0" index="0" disallow="pedestrian tram rail_urban rail rail_electric rail_fast ship" speed="12.45" length="4.65" shape="531.09,1046.84 530.06,1049.30 528.82,1050.84"/>
    </edge>
    <edge id=":1758687241_5" function="internal">
        <lane id=":1758687241_5_0" index="0" disallow="pedestrian tram rail_urban rail rail_electric rail_fast ship" speed="3.65" length="2.34" shape="531.09,1046.84 530.06,1047.84 529.19,1048.06"/>
    </edge>
    <edge id=":1758687241_11" function="internal">
        <lane id=":1758687241_11_0" index="0" disallow="pedestrian tram rail_urban rail rail_electric rail_fast ship" speed="12.45" length="10.43" shape="528.82,1050.84 527.99,1051.87 524.88,1054.55 520.73,1057.34"/>
    </edge>
    <edge id=":1758687241_12" function="internal">
        <lane id=":1758687241_12_0" index="0" disallow="pedestrian tram rail_urban rail rail_electric rail_fast ship" speed="3.65" length="2.34" shape="529.19,1048.06 528.49,1047.51 527.96,1046.17"/>
    </edge>
    <edge id=":1758687241_6" function="internal">
        <lane id=":1758687241_6_0" index="0" disallow="pedestrian tram rail_urban rail rail_electric rail_fast ship" speed="11.37" length="12.50" shape="519.06,1054.61 522.68,1052.21 525.37,1050.01 527.13,1047.99 527.96,1046.17"/>
    </edge>
    <edge id=":1758687241_7" function="internal">
        <lane id=":1758687241_7_0" index="0" disallow="pedestrian tram rail_urban rail rail_electric rail_fast ship" speed="7.78" length="17.92" shape="519.06,1054.61 523.92,1052.49 527.57,1052.80 530.03,1055.52 531.28,1060.66"/>
    </edge>
    <edge id=":1758687241_8" function="internal">
        <lane id=":1758687241_8_0" index="0" disallow="pedestrian tram rail_urban rail rail_electric rail_fast ship" speed="3.65" length="4.67" shape="519.06,1054.61 520.50,1054.66 521.26,1055.14 521.34,1056.03 520.73,1057.34"/>
    </edge>
    <edge id=":1758687241_c0" function="crossing" crossingEdges="-24829299#0 24829299#0">
        <lane id=":1758687241_c0_0" index="0" allow="pedestrian" speed="1.00" length="6.40" width="4.00" shape="532.67,1058.51 526.30,1059.17"/>
    </edge>
    <edge id=":1758687241_c1" function="crossing" crossingEdges="24829299#1 -24829299#1">
        <lane id=":1758687241_c1_0" index="0" allow="pedestrian" speed="1.00" length="6.40" width="4.00" shape="525.98,1047.79 532.24,1049.13"/>
    </edge>
    <edge id=":1758687241_c2" function="crossing" crossingEdges="164215847#0 -164215847#0">
        <lane id=":1758687241_c2_0" index="0" allow="pedestrian" speed="1.00" length="6.40" width="4.00" shape="523.27,1057.66 519.94,1052.20"/>
    </edge>
    <edge id=":1758687241_w0" function="walkingarea">
        <lane id=":1758687241_w0_0" index="0" allow="pedestrian" speed="1.00" length="3.36" width="4.00" shape="521.56,1058.70 522.60,1060.41 524.52,1061.36 526.50,1061.16 526.22,1059.66 525.72,1058.60 525.00,1057.97 524.07,1057.78 522.93,1058.03"/>
    </edge>
    <edge id=":1758687241_w1" function="walkingarea">
        <lane id=":1758687241_w1_0" index="0" allow="pedestrian" speed="1.00" length="8.24" width="4.00" shape="532.87,1060.50 534.86,1060.30 534.61,1047.59 532.66,1047.17 532.14,1049.96 531.94,1052.05 531.98,1053.79 532.20,1055.55 532.52,1057.66"/>
    </edge>
    <edge id=":1758687241_w2" function="walkingarea">
        <lane id=":1758687241_w2_0" index="0" allow="pedestrian" speed="1.00" length="6.71" width="4.00" shape="526.40,1045.83 524.44,1045.41 517.19,1051.53 518.23,1053.24 520.56,1051.75 522.50,1050.37 524.06,1049.08 525.22,1047.90 526.01,1046.81"/>
    </edge>
    <edge id=":1758687243_0" function="internal">
        <lane id=":1758687243_0_0" index="0" disallow="pedestrian tram rail_urban rail rail_electric rail_fast ship" speed="3.65" length="4.67" shape="583.15,1060.56 582.48,1061.83 581.72,1062.31 580.89,1062.00 579.97,1060.88"/>
    </edge>
    <edge id=":1758687243_w0" function="walkingarea">
        <lane id=":1758687243_w0_0" index="0" allow="pedestrian" speed="1.00" length="8.40" width="2.00" shape="578.38,1061.05 576.39,1061.25 586.73,1060.20 584.74,1060.40"/>
    </edge>
    <edge id=":1758687244_0" function="internal">
        <lane id=":1758687244_0_0" index="0" disallow="pedestrian tram rail_urban rail rail_electric rail_fast ship" speed="7.91" length="7.40" shape="634.89,863.09 633.21,864.43 632.00,865.87 631.27,867.41 631.00,869.05"/>
    </edge>
    <edge id=":1758687244_1" function="internal">
        <lane id=":1758687244_1_0" index="0" disallow="pedestrian tram rail_urban rail rail_electric rail_fast ship" speed="8.08" length="11.54" shape="634.89,863.09 632.15,864.45 629.47,864.80 626.85,864.14 624.28,862.47"/>
    </edge>
    <edge id=":1758687244_2" function="internal">
        <lane id=":1758687244_2_0" index="0" disallow="pedestrian tram rail_urban rail rail_electric rail_fast ship" speed="3.65" length="4.67" shape="634.89,863.09 633.45,863.09 632.67,862.66 632.56,861.77 633.10,860.43"/>
    </edge>
    <edge id=":1758687244_3" function="internal">
        <lane id=":1758687244_3_0" index="0" disallow="pedestrian tram rail_urban rail rail_electric rail_fast ship" speed="6.56" length="2.86" shape="626.36,860.04 627.99,861.11 628.88,861.33"/>
    </edge>
    <edge id=":1758687244_4" function="internal">
        <lane id=":1758687244_4_0" index="0" disallow="pedestrian tram rail_urban rail rail_electric rail_fast ship" speed="9.90" length="10.47" shape="626.36,860.04 628.42,862.13 629.88,864.32 630.74,866.63 631.00,869.05"/>
    </edge>
    <edge id=":1758687244_5" function="internal">
        <lane id=":1758687244_5_0" index="0" disallow="pedestrian tram rail_urban rail rail_electric rail_fast ship" speed="3.65" length="2.46" shape="626.36,860.04 626.75,861.43 626.54,862.30 626.42,862.35"/>
    </edge>
    <edge id=":1758687244_9" function="internal">
        <lane id=":1758687244_9_0" index="0" disallow="pedestrian tram rail_urban rail rail_electric rail_fast ship" speed="6.56" length="4.46" shape="628.88,861.33 629.66,861.52 631.36,861.30 633.10,860.43"/>
    </edge>
    <edge id=":1758687244_10" function="internal">
        <lane id=":1758687244_10_0" index="0" disallow="pedestrian tram rail_urban rail rail_electric rail_fast ship" speed="3.65" length="2.21" shape="626.42,862.35 625.71,862.65 624.28,862.47"/>
    </edge>
    <edge id=":1758687244_6" function="internal">
        <lane id=":1758687244_6_0" index="0" disallow="pedestrian tram rail_urban rail rail_electric rail_fast ship" speed="8.54" length="3.50" shape="627.80,869.01 627.60,867.30 626.95,865.64"/>
    </edge>
    <edge id=":1758687244_7" function="internal">
        <lane id=":1758687244_7_0" index="0" disallow="pedestrian tram rail_urban rail rail_electric rail_fast ship" speed="9.31" length="3.59" shape="627.80,869.01 628.16,866.58 628.63,865.54"/>
    </edge>
    <edge id=":1758687244_8" function="internal">
        <lane id=":1758687244_8_0" index="0" disallow="pedestrian tram rail_urban rail rail_electric rail_fast ship" speed="3.65" length="2.12" shape="627.80,869.01 628.62,867.82 629.23,867.53"/>
    </edge>
    <edge id=":1758687244_11" function="internal">
        <lane id=":1758687244_11_0" index="0" disallow="pedestrian tram rail_urban rail rail_electric rail_fast ship" speed="8.54" length="4.16" shape="626.95,865.64 625.84,864.03 624.28,862.47"/>
    </edge>
    <edge id=":1758687244_12" function="internal">
        <lane id=":1758687244_12_0" index="0" disallow="pedestrian tram rail_urban rail rail_electric rail_fast ship" speed="9.31" length="6.89" shape="628.63,865.54 629.17,864.34 630.81,862.29 633.10,860.43"/>
    </edge>
    <edge id=":1758687244_13" function="internal">
        <lane id=":1758687244_13_0" index="0" disallow="pedestrian tram rail_urban rail rail_electric rail_fast ship" speed="3.65" length="2.56" shape="629.23,867.53 629.43,867.43 630.22,867.84 631.00,869.05"/>
    </edge>
    <edge id=":1758687244_c0" function="crossing" crossingEdges="217101396 -217101396">
        <lane id=":1758687244_c0_0" index="0" allow="pedestrian" speed="1.00" length="6.40" width="4.00" shape="630.55,860.23 634.13,865.53"/>
    </edge>
    <edge id=":1758687244_c1" function="crossing" crossingEdges="-164215846#2 164215846#2">
        <lane id=":1758687244_c1_0" index="0" allow="pedestrian" speed="1.00" length="6.40" width="4.00" shape="624.76,864.99 628.92,860.13"/>
    </edge>
    <edge id=":1758687244_c2" function="crossing" crossingEdges="164215846#3 -164215846#3">
        <lane id=":1758687244_c2_0" index="0" allow="pedestrian" speed="1.00" length="6.40" width="4.00" shape="632.63,867.08 626.24,866.98"/>
    </edge>
    <edge id=":1758687244_w0" function="walkingarea">
        <lane id=":1758687244_w0_0" index="0" allow="pedestrian" speed="1.00" length="3.18" width="4.00" shape="632.60,869.08 634.60,869.11 636.91,866.07 635.79,864.41 634.83,865.13 634.04,865.87 633.42,866.64 632.98,867.43 632.70,868.24"/>
    </edge>
    <edge id=":1758687244_w1" function="walkingarea">