<?xml version="1.0" encoding="UTF-8"?>

<!-- generated on 2021-12-20 18:21:31 by Eclipse SUMO duarouter Version 1.11.0
<configuration xmlns:xsi="http://www.w3.org/2001/XMLSchema-instance" xsi:noNamespaceSchemaLocation="http://sumo.dlr.de/xsd/duarouterConfiguration.xsd">

    <input>
        <net-file value="osm.net.xml"/>
        <route-files value="osm.passenger.trips.xml"/>
    </input>

    <output>
        <output-file value="routes.rou.xml"/>
        <alternatives-output value="routes.rou.alt.xml"/>
    </output>

    <time>
        <begin value="0"/>
        <end value="500"/>
    </time>

    <report>
        <no-warnings value="true"/>
        <ignore-errors value="true"/>
        <no-step-log value="true"/>
    </report>

</configuration>
-->

<routes xmlns:xsi="http://www.w3.org/2001/XMLSchema-instance" xsi:noNamespaceSchemaLocation="http://sumo.dlr.de/xsd/routes_file.xsd">
    <vType id="veh_passenger" vClass="passenger"/>
    <vehicle id="veh1" type="veh_passenger" depart="7.00" departLane="best" departSpeed="max">
        <route edges="231047289#0 231047289#1 231047289#2 231047289#3 639315111#0 639315111#1 230931464#0 230931464#1 24829377#1 24829377#3 24829377#4 24829377#7 -24829377#7 -24829377#6 -24829377#3 -24829377#2 230931464#2 230931459#0 230931459#1 42986595#0 42986595#1 42986595#2 42986595#3 42986595#4 43915485#0 -43912696#3 -230931497#5 -230931497#4 -230931497#3 -230931497#2 -43912691#1 43912696#0 43912696#1 43912696#3 -43915485#0 46621730#0 46621730#1 46621730#2 46621730#3 -230931459#3 -230931459#0 42133039#0 42133039#3 42133039#4 164216288#0 164216288#1 164216288#2 -231047289#3 231047289#3 639315111#0 639315111#1 230931464#0 230931464#1 230931464#2 230931459#0 230931459#1 42986595#0 42986595#1 42986595#2 42986595#3 42986595#4 43915485#0 43915485#1 43915485#2 43912666#1 43912666#2 43912688#2 230931497#1 -43912691#1 -43912691#0 43912691#0 43912696#0 43912696#1 43912696#3 -43915485#0 46621730#0 46621730#1 46621730#2 46621730#3 -230931459#3 -230931459#0 42133039#0 42133039#3 42133039#4 164216288#0 230931487 230931456#0 230931456#3 -230931456#3 -230931456#2 -24797200 164216288#2 -231047289#3 -164216286 -24829229#1 -42986605 -42986604 43854633#3 43854633#4 639315111#1 230931464#0 230931464#1 230931464#2 230931459#0 230931459#1 42986595#0 42986595#1 42986595#2 42986595#3 46621730#1 230931465 230931498#0 43912726#0 43912726#1 186353840#2 230931499 46621730#2 -42986597 42986595#1 -42986602#1 42986598#1 42986601#1 -42986601#1 -42986598#1 -42986598#0 42986595#3 46621730#1 46621730#2 46621730#3 -230931459#3 -230931459#0 42133039#0 24829377#1 24829377#3 24829377#4 24829377#7 24829377#8"/>
    </vehicle>
    <vehicle id="veh2" type="veh_passenger" depart="17.00" departLane="best" departSpeed="max">
        <route edges="-217101452#1 -42986601#1 -42986598#1 -42986598#0 42986595#3 46621730#1 46621730#2 46621730#3 -230931459#3 -230931459#0 42133039#0 42133039#3 42133039#4 164216288#0 164216288#1 164216288#2 -231047289#3 -164216286 -24829229#1 -42986605 -217101402#1 217101444 -217101444 217101402#1 42986605 24829229#1 164216286 -231047289#2 -160726551#3 -160726551#2 -31773424#1 -230931456#2 -24797200 164216288#2 639315111#0 639315111#1 230931464#0 230931464#1 230931464#2 230931459#0 -230931459#0 42133039#0 230931464#2 230931459#0 230931459#1 42986595#0 42986595#1 -42986602#1 -42986598#0 42986595#3 46621730#1 46621730#2 46621730#3 -230931459#3 -230931459#0 42133039#0 42133039#3 42133039#4 164216288#0 164216288#1 164216288#2 -231047289#3 -231047289#2 231047289#2 231047289#3 639315111#0 639315111#1 230931464#0 230931464#1 230931464#2 230931459#0 230931459#1 42986595#0 42986595#1 42986595#2 42986595#3 46621730#1 230931465 230931498#0 43912726#0 43912726#1 -43912726#1 -43912726#0 230931498#1 43912691#0 43912691#1 -230931497#1 -43912688#2 -43912688#1 -43912733 230931497#5 43912696#3 -43915485#0 46621730#0 46621730#1 46621730#2 46621730#3 -230931459#3 -230931459#0 42133039#0 24829377#1 24829377#3 24829377#4 -24829377#6 -24829377#3 -24829377#2 230931464#2 230931459#0 230931459#1 42986595#0 42986595#1 -42986602#1 42986598#1 42986601#1 42986601#2 -42986601#2 -42986601#1 -42986598#1 -42986598#0 42986595#3 42986595#4 43915485#0 -43912696#3 -43912696#1 43912730"/>
    </vehicle>
    <vehicle id="veh3" type="veh_passenger" depart="20.00" departLane="best" departSpeed="max">
        <route edges="217101406 43912696#3 -43915485#0 46621730#0 46621730#1 46621730#2 46621730#3 -230931459#3 -230931459#0 42133039#0 42133039#3 42133039#4 164216288#0 164216288#1 164216288#2 -231047289#3 -164216286 -24829229#1 24829229#1 43854633#4 639315111#1 230931464#0 230931464#1 230931464#2 230931459#0 230931459#1 42986595#0 42986595#1 42986595#2 42986595#3 42986595#4 43915485#0 -43912696#3 -230931497#5 -230931497#4 -230931497#3 -43912740 230931497#4 230931497#5 43912696#3 -43915485#0 46621730#0 46621730#1 46621730#2 46621730#3 -230931459#3 -230931459#0 42133039#0 42133039#3 42133039#4 164216288#0 164216288#1 164216288#2 639315111#0 639315111#1 639315109 164216288#0 164216288#1 164216288#2 -231047289#3 231047289#3 639315111#0 639315111#1 230931464#0 230931464#1 24829377#1 -24829377#2 230931464#2 230931459#0 -24829269 -24829259#3 -24829259#0 43854633#3 43854633#4 639315111#1 230931464#0 230931464#1 230931464#2 230931459#0 230931459#1 42986595#0 42986595#1 42986595#2 42986595#3 46621730#1 46621730#2 46621730#3 -230931459#3 -230931459#0 42133039#0 42133039#3 42133039#4 164216288#0 230931487 230931456#0 31773424#0 -31773424#1 230931456#3 164215846#0 164215846#1 164215846#2 -164215846#2 -24829299#2 -24829299#1 -24829299#0"/>
    </vehicle>
    <vehicle id="veh5" type="veh_passenger" depart="46.00" departLane="best" departSpeed="max">
        <route edges="-43912724 43912726#1 186353840#2 230931499 46621730#2 46621730#3 -230931459#3 -230931459#0 42133039#0 42133039#3 42133039#4 164216288#0 164216288#1 164216288#2 639315111#0 639315111#1 230931464#0 230931464#1 230931464#2 230931459#0 230931459#1 42986595#0 42986595#1 42986595#2 42986595#3 42986595#4 43915485#0 43915485#1 43912688#0 -43912688#0 -43915485#1 -43915485#0 46621730#0 46621730#1 46621730#2 -42986597 42986595#1 -42986602#1 42986598#1 42986601#1 -42986601#1 -42986598#1 -42986598#0 42986595#3 46621730#1 46621730#2 46621730#3 -230931459#3 -24829269 217101442#0 217101442#1 -217101442#1 -217101442#0 -24829259#3 24829259#3 24829259#5 230931459#1 42986595#0 42986595#1 42986595#2 42986595#3 42986595#4 43915485#0 -43912696#3 -43912696#1 43912696#1 43912696#3 43915485#1 43915485#2 43912666#1 43912674 230931497#1 230931497#2 230931497#3 230931497#4 230931497#5 43912696#3 -43915485#0 46621730#0 46621730#1 46621730#2 46621730#3 -230931459#3 -24829269 -24829259#3 -43854553 43854633#1 43854633#2 43854633#3 164216286 231047289#3 639315111#0 639315111#1 230931464#0 230931464#1 230931464#2 230931459#0 230931459#1 42986595#0 42986595#1 -42986602#1 42986598#1 42986601#1 42986601#2 217101454"/>
    </vehicle>
    <vehicle id="veh6" type="veh_passenger" depart="47.00" departLane="best" departSpeed="max">
        <route edges="217101417 -230931459#3 -230931459#0 42133039#0 230931464#2 230931459#0 230931459#1 42986595#0 42986595#1 42986595#2 42986595#3 42986595#4 43915485#0 -43915485#0 46621730#0 46621730#1 46621730#2 46621730#3 -230931459#3 -230931459#0 42133039#0 42133039#3 42133039#4 164216288#0 230931487 230931456#0 230931456#3 -230931456#3 31773424#0 160726551#2 -160726551#2 160726551#2 160726551#3 231047289#2 231047289#3 639315111#0 639315111#1 230931464#0 230931464#1 230931464#2 230931459#0 230931459#1 42986595#0 42986595#1 42986595#2 42986595#3 42986595#4 43915485#0 43915485#1 43912688#0 43912688#1 -43912688#1 -43912688#0 -43915485#1 -43915485#0 46621730#0 46621730#1 46621730#2 46621730#3 -230931459#3 -230931459#0 42133039#0 42133039#3 42133039#4 164216288#0 230931487 230931456#0 230931456#3 164215846#0 -164215846#0 -230931456#3 -230931456#2 -24797200 164216288#2 639315111#0 639315111#1 230931464#0 230931464#1 230931464#2 230931459#0 230931459#1 42986595#0 42986595#1 42986595#2 42986595#3 46621730#1 230931465 230931498#0 43912726#0 43912726#1 186353840#2 230931499 46621730#2 -42986597 42986595#1 42986595#2 42986595#3 42986595#4 43915485#0 43915485#1 43912688#0 -43912688#0 -43915485#1 -43915485#0 46621730#0 46621730#1 46621730#2 46621730#3 -230931459#3 -24829269 -24829259#3 -43854553 43854633#1 43854633#2 43854633#3 43854633#4 639315111#1 230931464#0 230931464#1 230931464#2 230931459#0 230931459#1 42986595#0 42986595#1 42986595#2 42986595#3 42986595#4 43915485#0 43915485#1 43915485#2 43912666#1 -43912666#1 -43915485#2 -43915485#1 -43915485#0 46621730#0 46621730#1 46621730#2 -42986597 42986595#1 -42986602#1 -42986602#0 -162767856#3 -162767856#0"/>
    </vehicle>
    <vehicle id="veh7" type="veh_passenger" depart="50.00" departLane="best" departSpeed="max">
        <route edges="-639315113 -43915485#2 -43915485#1 -43915485#0 46621730#0 46621730#1 46621730#2 46621730#3 -230931459#3 -24829269 217101442#0 -217101442#0 24829259#5 230931459#1 42986595#0 42986595#1 42986595#2 42986595#3 42986595#4 43915485#0 -43912696#3 -230931497#5 -230931497#4 -230931497#3 230931497#3 230931497#4 230931497#5 43912696#3 -43915485#0 46621730#0 46621730#1 230931465 230931498#0 43912726#0 43912726#1 186353840#2 230931499 46621730#2 46621730#3 -230931459#3 -230931459#0 42133039#0 42133039#3 42133039#4 164216288#0 164216288#1 164216288#2 639315111#0 639315111#1 230931464#0 230931464#1 230931464#2 230931459#0 230931459#1 42986595#0 42986595#1 -42986602#1 42986598#1 42986601#1 -42986601#1 -42986598#1 -42986598#0 42986595#3 42986595#4 43915485#0 43915485#1 43915485#2 43912666#1 43912674 230931497#1 230931497#2 230931497#3 230931497#4 230931497#5 43912696#3 -43915485#0 46621730#0 46621730#1 46621730#2 46621730#3 -230931459#3 -230931459#0 42133039#0 42133039#3 42133039#4 164216288#0 230931487 230931456#0 230931456#3 164215846#0 164215846#1 -164215846#1 -164215846#0 -230931456#3 -230931456#2 -24797200 164216288#2 639315111#0 639315111#1 230931464#0 230931464#1 24829377#1 24829377#3 24829377#4 -24829377#6 -24829377#3 -24829377#2 230931464#2 230931459#0 230931459#1 42986595#0 42986595#1 -42986602#1 42986598#1 42986601#1 217101445"/>
    </vehicle>
    <vehicle id="veh8" type="veh_passenger" depart="58.00" departLane="best" departSpeed="max">
        <route edges="-217101452#1 -42986601#1 -42986598#1 -42986598#0 42986595#3 42986595#4 43915485#0 -43912696#3 -230931497#5 -230931497#4 -230931497#3 -230931497#2 -43912691#1 43912691#1 230931497#2 230931497#3 230931497#4 230931497#5 43912696#3 -43915485#0 46621730#0 46621730#1 46621730#2 46621730#3 -230931459#3 -230931459#0 42133039#0 42133039#3 42133039#4 164216288#0 230931487 230931456#0 31773424#0 -31773424#1 -230931456#2 -24797200 164216288#2 639315111#0 639315111#1 230931464#0 230931464#1 24829377#1 24829377#3 24829381 -24829381 -24829377#3 -24829377#2 230931464#2 230931459#0 -24829269 217101442#0 217101442#1 -217101442#1 -217101442#0 -24829259#3 -24829259#0 43854633#3 164216286 -231047289#2 231047289#2 -231047289#2 -160726551#3 -160726551#2 -31773424#1 -230931456#2 -24797200 164216288#2 639315111#0 639315111#1 230931464#0 230931464#1 230931464#2 230931459#0 230931459#1 42986595#0 42986595#1 42986595#2 42986595#3 42986595#4 43915485#0 -43912696#3 -43912696#1 -43912696#0 43912696#0 43912696#1 43912696#3 43915485#1 43915485#2 43912666#1 -43912666#1 -43915485#2 -43915485#1 -43915485#0 46621730#0 46621730#1 46621730#2 46621730#3 -230931459#3 -24829269 217101442#0 217101442#1 -217101442#1 -217101442#0 -24829259#3 -24829259#0 43854633#3 164216286 -231047289#2 -231047289#1 -231047289#0"/>
    </vehicle>
    <vehicle id="veh11" type="veh_passenger" depart="65.00" departLane="best" departSpeed="max">
        <route edges="43854633#0 43854633#1 43854633#2 43854633#3 43854633#4 639315111#1 230931464#0 230931464#1 230931464#2 230931459#0 230931459#1 42986595#0 42986595#1 42986595#2 42986595#3 46621730#1 230931465 230931498#0 43912726#0 43912726#1 186353840#2 230931499 46621730#2 46621730#3 -230931459#3 -230931459#0 42133039#0 42133039#3 42133039#4 164216288#0 164216288#1 164216288#2 -231047289#3 -164216286 43854633#4 639315111#1 639315109 164216288#0 164216288#1 164216288#2 -231047289#3 -164216286 -24829229#1 -42986605 -217101402#1 217101402#1 42986605 24829229#1 43854633#4 639315111#1 230931464#0 230931464#1 24829377#1 24829377#3 24829377#4 24829377#7 -24829377#7 -24829377#6 -24829377#3 -24829377#2 42133039#3 42133039#4 164216288#0 230931487 230931456#0 31773424#0 160726551#2 160726551#3 231047289#2 -164216286 -24829229#1 -42986605 -217101402#1 217101402#1 42986605 24829229#1 43854633#4 639315111#1 230931464#0 230931464#1 230931464#2 230931459#0 230931459#1 42986595#0 42986595#1 42986595#2 42986595#3 42986595#4 43915485#0 -43912696#3 -230931497#5 -230931497#4 -230931497#3 -43912740 230931497#4 230931497#5 43912696#3 43915485#1 43915485#2 43915485#3"/>
    </vehicle>
    <vehicle id="veh12" type="veh_passenger" depart="74.00" departLane="best" departSpeed="max">
        <route edges="-24797309#2 -42986600 42986595#3 46621730#1 230931465 230931498#0 230931498#1 43912691#0 43912691#1 -230931497#1 230931497#1 230931497#2 230931497#3 230931497#4 230931497#5 43912696#3 -43915485#0 46621730#0 46621730#1 46621730#2 46621730#3 -230931459#3 -230931459#0 42133039#0 230931464#2 230931459#0 -230931459#0 42133039#0 42133039#3 42133039#4 164216288#0 164216288#1 164216288#2 -231047289#3 -164216286 -24829229#1 -42986605 -217101402#1 217101402#1 42986605 24829229#1 43854633#4 639315111#1 230931464#0 230931464#1 230931464#2 230931459#0 230931459#1 42986595#0 42986595#1 42986595#2 42986595#3 42986595#4 43915485#0 -43912696#3 -230931497#5 -230931497#4 -230931497#3 -230931497#2 230931497#2 230931497#3 230931497#4 230931497#5 43912696#3 -43915485#0 46621730#0 46621730#1 46621730#2 46621730#3 -230931459#3 -24829269 217101442#0 217101442#1 -217101442#1 -217101442#0 -24829259#3 -24829259#0 43854633#3 43854633#4 639315111#1 639315109 164216288#0 164216288#1 164216288#2 -231047289#3 231047289#3 639315111#0 639315111#1 230931464#0 230931464#1 230931464#2 230931459#0 230931459#1 42986595#0 42986595#1 42986595#2 42986595#3 42986595#4 43915485#0 43915485#1 43915485#2 -43915485#2 -43915485#1 -43915485#0 46621730#0 46621730#1 46621730#2 -42986597 42986595#1 -42986602#1 -42986602#0 -162767856#3 -162767856#0"/>
    </vehicle>
    <vehicle id="veh14" type="veh_passenger" depart="84.00" departLane="best" departSpeed="max">
        <route edges="-43912730 43912696#1 43912696#3 -43915485#0 46621730#0 46621730#1 46621730#2 46621730#3 -230931459#3 -230931459#0 42133039#0 42133039#3 42133039#4 164216288#0 164216288#1 164216288#2 639315111#0 639315111#1 230931464#0 230931457 24829259#3 217101442#0 217101442#1 -217101442#1 -217101442#0 24829259#5 -230931459#0 42133039#0 24829377#1 24829377#3 24829377#4 24829377#7 -24829377#7 -24829377#6 -24829377#3 -24829377#2 230931464#2 230931459#0 230931459#1 42986595#0 42986595#1 -42986602#1 42986598#1 42986601#1 -42986601#1 -42986598#1 -42986598#0 42986595#3 42986595#4 43915485#0 -43912696#3 -230931497#5 43912733 43912688#1 -43912688#1 -43912688#0 43912688#0 -43912688#0 -43915485#1 -43915485#0 46621730#0 46621730#1 230931465 230931498#0 43912726#0 43912726#1 -43912726#1 43912726#1 186353840#2 230931499 46621730#2 46621730#3 -230931459#3 -230931459#0 42133039#0 42133039#3 42133039#4 164216288#0 230931487 -24797200 164216288#2 639315111#0 639315111#1 230931464#0 230931457 24829259#3 43854452"/>
    </vehicle>
    <vehicle id="veh15" type="veh_passenger" depart="89.00" departLane="best" departSpeed="max">
        <route edges="231047289#0 231047289#1 231047289#2 231047289#3 639315111#0 639315111#1 230931464#0 230931464#1 230931464#2 230931459#0 230931459#1 42986595#0 42986595#1 42986595#2 42986595#3 42986595#4 43915485#0 43915485#1 43915485#2 -43912666#0 43912666#0 -43915485#2 -43915485#1 -43915485#0 46621730#0 46621730#1 46621730#2 46621730#3 -230931459#3 -24829269 24829259#5 230931459#1 42986595#0 42986595#1 42986595#2 42986595#3 42986595#4 43915485#0 -43912696#3 -230931497#5 -230931497#4 43912740 230931497#3 230931497#4 -230931497#4 -230931497#3 -230931497#2 -230931497#1 230931497#1 230931497#2 230931497#3 230931497#4 230931497#5 43912696#3 -43915485#0 46621730#0 46621730#1 46621730#2 46621730#3 -230931459#3 -230931459#0 42133039#0 42133039#3 42133039#4 164216288#0 164216288#1 164216288#2 639315111#0 639315111#1 230931464#0 230931464#1 230931464#2 230931459#0 230931459#1 42986595#0 42986595#1 -42986602#1 -42986602#0 -42986600 42986595#3 46621730#1 230931465 230931498#0 43912726#0 43912726#1 186353840#2 230931499 46621730#2 46621730#3 -230931459#3 -230931459#0 42133039#0 24829377#1 24829377#3 24829377#4 24829377#7 360892721#0 360892721#1 360892721#2 360892721#4 42133039#4 164216288#0 164216288#1 164216288#2 -231047289#3 -231047289#2 -160726551#3 -217101423"/>
    </vehicle>
    <vehicle id="veh17" type="veh_passenger" depart="100.00" departLane="best" departSpeed="max">
        <route edges="-217101442#2 -217101442#1 -217101442#0 24829259#5 230931459#1 42986595#0 42986595#1 42986595#2 42986595#3 42986595#4 43915485#0 43915485#1 43915485#2 43912666#1 -43912666#1 43912666#1 43912666#2 43912688#2 230931497#1 -43912691#1 43912691#1 230931497#2 230931497#3 230931497#4 230931497#5 43912696#3 -43915485#0 46621730#0 46621730#1 46621730#2 -42986597 42986595#1 -42986602#1 42986598#1 -42986598#1 -42986598#0 42986595#3 42986595#4 43915485#0 43915485#1 43915485#2 43912666#1 43912666#2 43912688#2 230931497#1 -43912691#1 43912691#1 230931497#2 230931497#3 230931497#4 230931497#5 43912696#3 -43915485#0 46621730#0 46621730#1 46621730#2 46621730#3 -230931459#3 -230931459#0 42133039#0 24829377#1 24829377#3 24829377#4 -24829377#6 -24829377#3 -24829377#2 230931464#2 230931459#0 230931459#1 42986595#0 42986595#1 42986601#0 -42986598#1 -42986598#0 42986595#3 46621730#1 46621730#2 46621730#3 -230931459#3 -230931459#0 42133039#0 230931464#2 230931459#0 230931459#1 42986595#0 42986595#1 42986595#2 42986595#3 42986595#4 43915485#0 43915485#1 43912688#0 43912688#1 -43912688#1 -43912688#0 -43915485#1 -43915485#0 46621730#0 46621730#1 46621730#2 46621730#3 -230931459#3 -230931459#0 42133039#0 42133039#3 42133039#4 164216288#0 230931487 230931456#0 230931456#3 164215846#0 164215846#1 164215846#2 217101396"/>
    </vehicle>
    <vehicle id="veh18" type="veh_passenger" depart="102.00" departLane="best" departSpeed="max">
        <route edges="24829372#0 -24829377#7 -24829377#6 -24829377#3 -24829377#2 230931464#2 230931459#0 230931459#1 42986595#0 42986595#1 42986595#2 42986595#3 42986595#4 43915485#0 43915485#1 43915485#2 43912666#1 43912666#2 -43912688#1 -43912688#0 -43915485#1 -43915485#0 46621730#0 46621730#1 46621730#2 -42986597 42986595#1 -42986602#1 42986598#1 42986601#1 42986601#2 -42986601#2 -42986601#1 -42986598#1 -42986598#0 42986595#3 42986595#4 43915485#0 43915485#1 43912688#0 43912688#1 -43912688#1 -43912688#0 -43915485#1 -43915485#0 46621730#0 46621730#1 46621730#2 46621730#3 -230931459#3 -230931459#0 42133039#0 42133039#3 42133039#4 164216288#0 230931487 230931456#0 230931456#3 164215846#0 164215846#1 -164215846#1 -164215846#0 -230931456#3 -230931456#2 -24797200 164216288#2 639315111#0 639315111#1 230931464#0 230931464#1 24829377#1 24829383 360892721#4 42133039#4 164216288#0 164216288#1 164216288#2 639315111#0 639315111#1 230931464#0 230931464#1 230931464#2 230931459#0 230931459#1 42986595#0 42986595#1 42986595#2 42986595#3 42986595#4 43915485#0 -43912696#3 -43912696#1 -43912696#0 -43912691#0 43912691#0 43912691#1 230931497#2 230931497#3 230931497#4 43912733 -43912688#0 -43915485#1 -43915485#0 46621730#0 46621730#1 46621730#2 -42986597 42986595#1 42986601#0 -42986601#0 42986595#2 42986595#3 42986595#4 43915485#0 43915485#1 43915485#2 43912666#1 -43912666#1 -43915485#2 -43915485#1 -43915485#0 46621730#0 46621730#1 46621730#2 46621730#3 42986603"/>
    </vehicle>
    <vehicle id="veh19" type="veh_passenger" depart="105.00" departLane="best" departSpeed="max">
        <route edges="24829229#0 24829229#1 43854633#4 639315111#1 230931464#0 230931464#1 230931464#2 230931459#0 230931459#1 42986595#0 42986595#1 42986595#2 42986595#3 42986595#4 43915485#0 43915485#1 43912761#0 43912666#0 -43915485#2 -43915485#1 -43915485#0 46621730#0 46621730#1 46621730#2 46621730#3 -230931459#3 -230931459#0 42133039#0 24829377#1 24829377#3 24829381 -24829381 -24829377#3 -24829377#2 230931464#2 230931459#0 -24829269 -24829259#3 -24829259#0 42986604 -42986604 43854633#3 43854633#4 639315111#1 639315109 164216288#0 164216288#1 164216288#2 639315111#0 639315111#1 230931464#0 230931464#1 230931464#2 230931459#0 230931459#1 42986595#0 42986595#1 42986595#2 42986595#3 42986595#4 43915485#0 43915485#1 43915485#2 43912666#1 -43912666#1 -43915485#2 -43915485#1 -43915485#0 46621730#0 46621730#1 46621730#2 -42986597 42986595#1 -42986602#1 42986598#1 -42986598#1 -42986598#0 42986595#3 46621730#1 46621730#2 46621730#3 -230931459#3 -230931459#0 42133039#0 24829377#1 24829383 -24829383 -24829377#2 42133039#3 42133039#4 164216288#0 230931487 230931456#0 230931456#3 164215846#0 164215846#1 -164215846#1 164215846#1 -24829299#2 164215847#1 -164215846#0 -230931456#3 -230931456#2 -24797200 164216288#2 639315111#0 639315111#1 230931464#0 230931464#1 230931464#2 230931459#0 230931459#1 42986595#0 42986595#1 42986595#2 42986595#3 42986595#4 43915485#0 -43912696#3 -230931497#5 -230931497#4 -230931497#3 -230931497#2 -230931497#1 -43912688#2 43912688#2 230931497#1 -43912691#1 -43912691#0 230931498#2 43912723"/>
    </vehicle>
    <vehicle id="veh21" type="veh_passenger" depart="116.00" departLane="best" departSpeed="max">
        <route edges="24829372#0 -24829377#7 -24829377#6 -24829377#3 -24829377#2 230931464#2 230931459#0 -230931459#0 42133039#0 24829377#1 24829377#3 24829377#4 24829377#7 360892721#0 217101392 -24829377#6 -24829377#3 -24829377#2 230931464#2 230931459#0 -230931459#0 42133039#0 42133039#3 42133039#4 164216288#0 230931487 230931456#0 230931456#3 164215846#0 -164215847#1 -24829299#1 24829299#1 164215847#1 -164215846#0 -230931456#3 -230931456#2 -24797200 164216288#2 639315111#0 639315111#1 230931464#0 230931464#1 230931464#2 230931459#0 230931459#1 42986595#0 42986595#1 42986595#2 42986595#3 46621730#1 230931465 230931498#0 43912726#0 43912726#1 -43912726#1 43912726#1 186353840#2 230931499 46621730#2 46621730#3 -230931459#3 -24829269 217101442#0 -217101442#0 24829259#5 230931459#1 42986595#0 42986595#1 42986595#2 42986595#3 42986595#4 43915485#0 -43912696#3 -230931497#5 -230931497#4 -230931497#3 -230931497#2 -230931497#1 -43912688#2 -43912666#2 -43912666#1 -43915485#2 -43915485#1 -43915485#0 46621730#0 46621730#1 46621730#2 46621730#3 -230931459#3 -230931459#0 42133039#0 42133039#3 42133039#4 164216288#0 164216288#1 164216288#2 -231047289#3 -164216286 43854633#4 639315111#1 230931464#0 230931464#1 24829377#1 24829377#3 24829377#4 24829377#7 24829377#8"/>
    </vehicle>
    <vehicle id="veh27" type="veh_passenger" depart="157.00" departLane="best" departSpeed="max">
        <route edges="-42986601#3 -42986601#2 -42986601#1 -42986598#1 -42986598#0 42986595#3 46621730#1 46621730#2 46621730#3 -230931459#3 -230931459#0 42133039#0 42133039#3 42133039#4 164216288#0 164216288#1 164216288#2 639315111#0 639315111#1 230931464#0 230931464#1 230931464#2 230931459#0 230931459#1 42986595#0 42986595#1 42986595#2 42986595#3 42986595#4 43915485#0 43915485#1 43912761#0 43912666#0 -43915485#2 -43915485#1 43915485#1 -43915485#1 -43915485#0 46621730#0 46621730#1 46621730#2 46621730#3 -230931459#3 -230931459#0 42133039#0 42133039#3 42133039#4 164216288#0 230931487 230931456#0 230931456#3 164215846#0 164215846#1 -164215846#1 -164215846#0 -230931456#3 -230931456#2 -24797200 164216288#2 639315111#0 639315111#1 230931464#0 230931464#1 42133039#3 42133039#4 164216288#0 164216288#1 164216288#2 639315111#0 639315111#1 230931464#0 230931464#1 230931464#2 230931459#0 230931459#1 42986595#0 42986595#1 42986595#2 42986595#3 42986595#4 43915485#0 -43912696#3 -230931497#5 230931497#5 43912696#3 -43915485#0 46621730#0 46621730#1 46621730#2 46621730#3 -230931459#3 -230931459#0 42133039#0 24829377#1 24829377#3 24829381 -24829381 -24829377#3 -24829377#2 42133039#3 42133039#4 164216288#0 230931487 230931456#0 230931456#3 164215846#0 -164215847#1 164215847#1 -164215846#0 -230931456#3 -230931456#2 -24797200 164216288#2 639315111#0 639315111#1 230931464#0 230931464#1 230931464#2 230931459#0 230931459#1 42986595#0 42986595#1 -42986602#1 -42986602#0 -162767856#3 -162767845#1"/>
    </vehicle>
    <vehicle id="veh28" type="veh_passenger" depart="161.00" departLane="best" departSpeed="max">
        <route edges="-43912730 43912696#1 -230931497#5 -230931497#4 -230931497#3 230931497#3 230931497#4 230931497#5 43912696#3 -43915485#0 46621730#0 46621730#1 230931465 230931499 46621730#2 46621730#3 -230931459#3 -230931459#0 42133039#0 42133039#3 42133039#4 164216288#0 230931487 230931456#0 230931456#3 164215846#0 164215846#1 -164215846#1 -164215846#0 -230931456#3 -230931456#2 -24797200 164216288#2 639315111#0 639315111#1 230931464#0 230931464#1 230931464#2 230931459#0 230931459#1 42986595#0 42986595#1 42986595#2 42986595#3 42986595#4 43915485#0 43915485#1 43915485#2 -43915485#2 -43915485#1 -43915485#0 46621730#0 46621730#1 46621730#2 46621730#3 -230931459#3 -230931459#0 42133039#0 230931464#2 230931459#0 -230931459#0 42133039#0 42133039#3 42133039#4 164216288#0 230931487 230931456#0 230931456#3 164215846#0 164215846#1 -164215846#1 -164215846#0 -230931456#3 -230931456#2 -24797200 164216288#2 639315111#0 639315111#1 639315109 164216288#0 164216288#1 24797200 -24797200 164216288#2 639315111#0 639315111#1 230931464#0 230931464#1 230931464#2 230931459#0 230931459#1 42986595#0 42986595#1 42986595#2 42986595#3 42986595#4 43915485#0 -43912696#3 -230931497#5 -230931497#4 230931497#4 230931497#5 43912696#3 -43915485#0 46621730#0 46621730#1 46621730#2 46621730#3 -230931459#3 -230931459#0 42133039#0 42133039#3 42133039#4 164216288#0 164216288#1 164216288#2 639315111#0 639315111#1 230931464#0 230931464#1 24829377#1 24829377#3 24829377#4 -217101392 360892721#1 360892721#2 360892721#4 42133039#4 164216288#0 230931487 230931456#0 230931456#3 164215846#0 164215846#1 164215846#2 164215846#3"/>
    </vehicle>
    <vehicle id="veh29" type="veh_passenger" depart="169.00" departLane="best" departSpeed="max">
        <route edges="-164215846#3 -164215846#2 -164215846#1 -164215846#0 -230931456#3 -230931456#2 -24797200 164216288#2 639315111#0 639315111#1 230931464#0 230931464#1 230931464#2 230931459#0 -230931459#0 42133039#0 42133039#3 42133039#4 164216288#0 164216288#1 164216288#2 639315111#0 639315111#1 230931464#0 230931464#1 230931464#2 230931459#0 230931459#1 42986595#0 42986595#1 42986595#2 42986595#3 42986595#4 43915485#0 -43912696#3 -43912696#1 43912696#1 43912696#3 -43915485#0 46621730#0 46621730#1 46621730#2 46621730#3 -230931459#3 -230931459#0 42133039#0 42133039#3 42133039#4 164216288#0 164216288#1 164216288#2 -231047289#3 -164216286 -24829229#1 24829229#1 43854633#4 639315111#1 230931464#0 230931464#1 230931464#2 230931459#0 230931459#1 42986595#0 42986595#1 42986595#2 42986595#3 42986595#4 43915485#0 -43915485#0 46621730#0 46621730#1 46621730#2 46621730#3 -230931459#3 -230931459#0 42133039#0 42133039#3 42133039#4 164216288#0 164216288#1 164216288#2 -231047289#3 -164216286 -24829229#1 24829229#1 43854633#4 639315111#1 230931464#0 230931464#1 42133039#3 42133039#4 164216288#0 164216288#1 164216288#2 639315111#0 639315111#1 230931464#0 230931464#1 230931464#2 230931459#0 230931459#1 42986595#0 42986595#1 42986595#2 42986595#3 42986595#4 43915485#0 -43915485#0 46621730#0 46621730#1 46621730#2 46621730#3 -230931459#3 -230931459#0 42133039#0 24829377#1 -24829377#2 42133039#3 42133039#4 164216288#0 230931487 230931456#0 230931456#3 164215846#0 -164215846#0 -230931456#3 -230931456#2 -24797200 164216288#2 -231047289#3 -164216286 -24829229#1 -42986605 -217101402#1 -217101402#0"/>
    </vehicle>
    <vehicle id="veh31" type="veh_passenger" depart="171.00" departLane="best" departSpeed="max">
        <route edges="-24797309#2 -42986600 42986595#3 46621730#1 46621730#2 46621730#3 -230931459#3 -230931459#0 42133039#0 42133039#3 42133039#4 164216288#0 230931487 230931456#0 230931456#3 164215846#0 -164215847#1 24829299#2 -164215846#1 -164215846#0 -230931456#3 -230931456#2 -24797200 164216288#2 639315111#0 639315111#1 230931464#0 230931464#1 230931464#2 230931459#0 230931459#1 42986595#0 42986595#1 42986595#2 42986595#3 42986595#4 43915485#0 43915485#1 43915485#2 -43915485#2 -43915485#1 -43915485#0 46621730#0 46621730#1 46621730#2 46621730#3 -230931459#3 -230931459#0 42133039#0 42133039#3 42133039#4 164216288#0 230931487 230931456#0 31773424#0 160726551#2 160726551#3 231047289#2 231047289#3 639315111#0 639315111#1 230931464#0 230931457 24829259#3 217101442#0 217101442#1 -217101442#1 -217101442#0 24829259#5 -230931459#0 42133039#0 24829377#1 24829377#3 24829377#4 -217101392 360892721#1 360892721#2 360892721#4 42133039#4 164216288#0 164216288#1 164216288#2 -231047289#3 -231047289#2 -231047289#1 231047289#1 231047289#2 231047289#3 639315111#0 639315111#1 230931464#0 230931464#1 230931464#2 230931459#0 -230931459#0 42133039#0 230931464#2 230931459#0 230931459#1 42986595#0 42986595#1 42986595#2 42986595#3 46621730#1 46621730#2 46621730#3 -230931459#3 -230931459#0 42133039#0 42133039#3 42133039#4 164216288#0 164216288#1 164216288#2 -231047289#3 -164216286 43854633#4 639315111#1 230931464#0 230931464#1 230931464#2 230931459#0 230931459#1 42986595#0 42986595#1 -42986602#1 42986598#1 42986601#1 42986601#2 217101454"/>
    </vehicle>
    <vehicle id="veh32" type="veh_passenger" depart="172.00" departLane="best" departSpeed="max">