<?xml version="1.0" encoding="UTF-8"?>

<!-- generated on 2022-01-21 03:09:57 by Eclipse SUMO duarouter Version 1.11.0
<configuration xmlns:xsi="http://www.w3.org/2001/XMLSchema-instance" xsi:noNamespaceSchemaLocation="http://sumo.dlr.de/xsd/duarouterConfiguration.xsd">

    <input>
        <net-file value="osm.net.xml"/>
        <route-files value="osm.passenger.trips.xml"/>
    </input>

    <output>
        <output-file value="osm.passenger.trips.xml.tmp"/>
        <write-trips value="true"/>
    </output>

    <time>
        <begin value="0"/>
        <end value="1200"/>
    </time>

    <report>
        <no-warnings value="true"/>
        <ignore-errors value="true"/>
        <no-step-log value="true"/>
    </report>

</configuration>
-->

<routes xmlns:xsi="http://www.w3.org/2001/XMLSchema-instance" xsi:noNamespaceSchemaLocation="http://sumo.dlr.de/xsd/routes_file.xsd">
    <vType id="veh_passenger" maxSpeed="5.80" vClass="passenger"/>
    <trip id="veh0" type="veh_passenger" depart="0.00" departLane="best" departSpeed="max" from="229739460#0" to="215555541" via="-215555527"/>
    <trip id="veh1" type="veh_passenger" depart="5.00" departLane="best" departSpeed="max" from="-24807752#2" to="24828319" via="24829856"/>
    <trip id="veh2" type="veh_passenger" depart="10.00" departLane="best" departSpeed="max" from="48656852#0" to="24804444#3" via="-229744979"/>
    <trip id="veh4" type="veh_passenger" depart="20.00" departLane="best" departSpeed="max" from="-127195808" to="24828319" via="-24807752#0"/>
    <trip id="veh5" type="veh_passenger" depart="25.00" departLane="best" departSpeed="max" from="127195809" to="24826574" via="-44793792"/>
    <trip id="veh6" type="veh_passenger" depart="30.00" departLane="best" departSpeed="max" from="24807713#0" to="44796867#5" via="-215555515#1"/>
    <trip id="veh7" type="veh_passenger" depart="35.00" departLane="best" departSpeed="max" from="24803677#0" to="127195808" via="215555530#1"/>
    <trip id="veh8" type="veh_passenger" depart="40.00" departLane="best" departSpeed="max" from="637980525#0" to="-229984733#0" via="215555528"/>
    <trip id="veh9" type="veh_passenger" depart="45.00" departLane="best" departSpeed="max" from="-215555541" to="24826574" via="44796867#0"/>
    <trip id="veh10" type="veh_passenger" depart="50.00" departLane="best" departSpeed="max" from="24807713#0" to="24826328#1" via="24829832#1"/>
    <trip id="veh11" type="veh_passenger" depart="55.00" departLane="best" departSpeed="max" from="668160773#0" to="24826429" via="215555575#1"/>
    <trip id="veh12" type="veh_passenger" depart="60.00" departLane="best" departSpeed="max" from="24807713#0" to="48656851" via="24807598#2"/>
    <trip id="veh13" type="veh_passenger" depart="65.00" departLane="best" departSpeed="max" from="229739446#0" to="-229747040" via="24826340"/>
    <trip id="veh14" type="veh_passenger" depart="70.00" departLane="best" departSpeed="max" from="-24807752#2" to="-229984733#0" via="-49516101"/>
    <trip id="veh15" type="veh_passenger" depart="75.00" departLane="best" departSpeed="max" from="-24826429" to="215555541" via="-229747037"/>
    <trip id="veh16" type="veh_passenger" depart="80.00" departLane="best" departSpeed="max" from="229739460#0" to="229739461#1" via="215555569#1"/>
    <trip id="veh17" type="veh_passenger" depart="85.00" departLane="best" departSpeed="max" from="-24807752#2" to="49516108#1" via="-44796884"/>
    <trip id="veh18" type="veh_passenger" depart="90.00" departLane="best" departSpeed="max" from="229739460#0" to="198806099" via="24807596#0"/>
    <trip id="veh19" type="veh_passenger" depart="95.00" departLane="best" departSpeed="max" from="24804868#0" to="229739461#1" via="-24805435#1"/>
    <trip id="veh20" type="veh_passenger" depart="100.00" departLane="best" departSpeed="max" from="668160773#0" to="24826429" via="24807652#0"/>
    <trip id="veh21" type="veh_passenger" depart="105.00" departLane="best" departSpeed="max" from="229984733#0" to="44796867#5" via="44793998"/>
    <trip id="veh22" type="veh_passenger" depart="110.00" departLane="best" departSpeed="max" from="-24807752#2" to="215555563" via="-215555530#1"/>
    <trip id="veh23" type="veh_passenger" depart="115.00" departLane="best" departSpeed="max" from="-24826429" to="49516108#1" via="-24829824"/>
    <trip id="veh24" type="veh_passenger" depart="120.00" departLane="best" departSpeed="max" from="24828279#0" to="24828319" via="215555515#0"/>
    <trip id="veh25" type="veh_passenger" depart="125.00" departLane="best" departSpeed="max" from="-44796867#5" to="24807752#2" via="49516116#3"/>
    <trip id="veh26" type="veh_passenger" depart="130.00" departLane="best" departSpeed="max" from="-24826429" to="24826429" via="-44794007"/>
    <trip id="veh27" type="veh_passenger" depart="135.00" departLane="best" departSpeed="max" from="-24826429" to="49516098#1" via="24805376#2"/>
    <trip id="veh28" type="veh_passenger" depart="140.00" departLane="best" departSpeed="max" from="-44796867#5" to="668160769#2" via="-44793792"/>
    <trip id="veh29" type="veh_passenger" depart="145.00" departLane="best" departSpeed="max" from="-866003620#1" to="-229747040" via="-229747036#1"/>
    <trip id="veh30" type="veh_passenger" depart="150.00" departLane="best" departSpeed="max" from="-215555541" to="44796867#5" via="24807645#2"/>
    <trip id="veh31" type="veh_passenger" depart="155.00" departLane="best" departSpeed="max" from="-44796922#6" to="229739461#1" via="-215555584#2"/>
    <trip id="veh32" type="veh_passenger" depart="160.00" departLane="best" departSpeed="max" from="668160773#0" to="668160769#2" via="24803893#2"/>
    <trip id="veh33" type="veh_passenger" depart="165.00" departLane="best" departSpeed="max" from="24828279#0" to="44793791#3" via="-215555516#1"/>
    <trip id="veh35" type="veh_passenger" depart="175.00" departLane="best" departSpeed="max" from="229739460#0" to="24804444#3" via="-229747043#0"/>
    <trip id="veh36" type="veh_passenger" depart="180.00" departLane="best" departSpeed="max" from="-44796922#6" to="49516098#1" via="668160771#1"/>
    <trip id="veh37" type="veh_passenger" depart="185.00" departLane="best" departSpeed="max" from="-24826429" to="198806099" via="24790521#0"/>
    <trip id="veh38" type="veh_passenger" depart="190.00" departLane="best" departSpeed="max" from="48656852#0" to="215555563" via="44796922#1"/>
    <trip id="veh39" type="veh_passenger" depart="195.00" departLane="best" departSpeed="max" from="229739460#0" to="127195808" via="24807596#0"/>
    <trip id="veh40" type="veh_passenger" depart="200.00" departLane="best" departSpeed="max" from="24804868#0" to="44796867#5" via="24804868#3"/>
    <trip id="veh41" type="veh_passenger" depart="205.00" departLane="best" departSpeed="max" from="-866003620#1" to="215555575#2" via="-129534287"/>
    <trip id="veh42" type="veh_passenger" depart="210.00" departLane="best" departSpeed="max" from="-127195808" to="49516098#1" via="49516119"/>
    <trip id="veh43" type="veh_passenger" depart="215.00" departLane="best" departSpeed="max" from="24807713#0" to="-229747040" via="-697837884#0"/>
    <trip id="veh44" type="veh_passenger" depart="220.00" departLane="best" departSpeed="max" from="24828279#0" to="-229984733#0" via="668160769#0"/>
    <trip id="veh45" type="veh_passenger" depart="225.00" departLane="best" departSpeed="max" from="-48656851" to="44793952#1" via="-229739446#2"/>
    <trip id="veh46" type="veh_passenger" depart="230.00" departLane="best" departSpeed="max" from="24804918#0" to="24807752#2" via="-229984733#3"/>
    <trip id="veh47" type="veh_passenger" depart="235.00" departLane="best" departSpeed="max" from="127195809" to="49516098#1" via="-44796872"/>
    <trip id="veh48" type="veh_passenger" depart="240.00" departLane="best" departSpeed="max" from="-44796922#6" to="24826328#1" via="-24829832#0"/>
    <trip id="veh49" type="veh_passenger" depart="245.00" departLane="best" departSpeed="max" from="24804868#0" to="215555563" via="-24807752#1"/>
    <trip id="veh50" type="veh_passenger" depart="250.00" departLane="best" departSpeed="max" from="668160773#0" to="24804444#3" via="24807659"/>
    <trip id="veh51" type="veh_passenger" depart="255.00" departLane="best" departSpeed="max" from="-866003620#1" to="198806390" via="-229984706#2"/>
    <trip id="veh52" type="veh_passenger" depart="260.00" departLane="best" departSpeed="max" from="-43960791" to="215555527" via="24805377"/>
    <trip id="veh53" type="veh_passenger" depart="265.00" departLane="best" departSpeed="max" from="-24807752#2" to="24828277#5" via="-229739446#2"/>
    <trip id="veh54" type="veh_passenger" depart="270.00" departLane="best" departSpeed="max" from="-24807752#2" to="48656851" via="49516103"/>
    <trip id="veh55" type="veh_passenger" depart="275.00" departLane="best" departSpeed="max" from="-198806099" to="24828319" via="-44793994#1"/>
    <trip id="veh56" type="veh_passenger" depart="280.00" departLane="best" departSpeed="max" from="-24807752#2" to="49516108#1" via="-229984733#4"/>
    <trip id="veh57" type="veh_passenger" depart="285.00" departLane="best" departSpeed="max" from="127195809" to="44796867#5" via="229984706#1"/>
    <trip id="veh58" type="veh_passenger" depart="290.00" departLane="best" departSpeed="max" from="24807713#0" to="-229984733#0" via="-24807690"/>
    <trip id="veh59" type="veh_passenger" depart="295.00" departLane="best" departSpeed="max" from="-44796922#6" to="24807752#2" via="229747036#0"/>
    <trip id="veh60" type="veh_passenger" depart="300.00" departLane="best" departSpeed="max" from="24804868#0" to="668160769#2" via="24807701#1"/>
    <trip id="veh61" type="veh_passenger" depart="305.00" departLane="best" departSpeed="max" from="-215555541" to="215555575#2" via="229739461#0"/>
    <trip id="veh62" type="veh_passenger" depart="310.00" departLane="best" departSpeed="max" from="24828279#0" to="198806099" via="-44796867#0"/>
    <trip id="veh63" type="veh_passenger" depart="315.00" departLane="best" departSpeed="max" from="-44796922#6" to="215555541" via="229747035"/>
    <trip id="veh64" type="veh_passenger" depart="320.00" departLane="best" departSpeed="max" from="-24826429" to="24804444#3" via="49516117#1"/>
    <trip id="veh65" type="veh_passenger" depart="325.00" departLane="best" departSpeed="max" from="24828279#0" to="-229747040" via="24804918#3"/>
    <trip id="veh66" type="veh_passenger" depart="330.00" departLane="best" departSpeed="max" from="668160773#0" to="668160769#2" via="44793997#1"/>
    <trip id="veh67" type="veh_passenger" depart="335.00" departLane="best" departSpeed="max" from="637980525#0" to="198806099" via="44796867#1"/>
    <trip id="veh68" type="veh_passenger" depart="340.00" departLane="best" departSpeed="max" from="-48656851" to="229998116#2" via="-24829832#0"/>
    <trip id="veh69" type="veh_passenger" depart="345.00" departLane="best" departSpeed="max" from="-198806099" to="668160769#2" via="215555575#1"/>
    <trip id="veh70" type="veh_passenger" depart="350.00" departLane="best" departSpeed="max" from="-24826429" to="24807752#2" via="44793791#0"/>
    <trip id="veh71" type="veh_passenger" depart="355.00" departLane="best" departSpeed="max" from="-44796922#6" to="668160769#2" via="668160773#1"/>
    <trip id="veh72" type="veh_passenger" depart="360.00" departLane="best" departSpeed="max" from="127195809" to="127195808" via="24828277#3"/>
    <trip id="veh73" type="veh_passenger" depart="365.00" departLane="best" departSpeed="max" from="127195809" to="-229747040" via="25543096#11"/>
    <trip id="veh74" type="veh_passenger" depart="370.00" departLane="best" departSpeed="max" from="229739446#0" to="48656851" via="24790521#1"/>
    <trip id="veh75" type="veh_passenger" depart="375.00" departLane="best" departSpeed="max" from="-215555575#2" to="-229984733#0" via="668160773#10"/>
    <trip id="veh76" type="veh_passenger" depart="380.00" departLane="best" departSpeed="max" from="-215555575#2" to="24828319" via="24805435#0"/>
    <trip id="veh77" type="veh_passenger" depart="385.00" departLane="best" departSpeed="max" from="-24826429" to="49516098#1" via="-229984706#2"/>
    <trip id="veh78" type="veh_passenger" depart="390.00" departLane="best" departSpeed="max" from="-24826429" to="24828277#5" via="24805435#0"/>
    <trip id="veh79" type="veh_passenger" depart="395.00" departLane="best" departSpeed="max" from="-44796867#5" to="24826328#1" via="24805376#1"/>
    <trip id="veh80" type="veh_passenger" depart="400.00" departLane="best" departSpeed="max" from="637980525#0" to="44793791#3" via="-24826340"/>
    <trip id="veh81" type="veh_passenger" depart="405.00" departLane="best" departSpeed="max" from="-24826429" to="24828319" via="229739446#3"/>
    <trip id="veh82" type="veh_passenger" depart="410.00" departLane="best" departSpeed="max" from="-24826574" to="44793952#1" via="215555515#1"/>
    <trip id="veh83" type="veh_passenger" depart="415.00" departLane="best" departSpeed="max" from="-198806099" to="668160769#2" via="229747044#2"/>
    <trip id="veh84" type="veh_passenger" depart="420.00" departLane="best" departSpeed="max" from="668160773#0" to="198806390" via="-229739446#3"/>
    <trip id="veh85" type="veh_passenger" depart="425.00" departLane="best" departSpeed="max" from="-24826429" to="49516098#1" via="49516120"/>
    <trip id="veh86" type="veh_passenger" depart="430.00" departLane="best" departSpeed="max" from="24828279#0" to="127195808" via="215555571#1"/>
    <trip id="veh87" type="veh_passenger" depart="435.00" departLane="best" departSpeed="max" from="24807713#0" to="24826574" via="24826340"/>
    <trip id="veh88" type="veh_passenger" depart="440.00" departLane="best" departSpeed="max" from="668160773#0" to="-229739446#0" via="24807662#1"/>
    <trip id="veh89" type="veh_passenger" depart="445.00" departLane="best" departSpeed="max" from="24807713#0" to="24828319" via="-697837882#0"/>
    <trip id="veh90" type="veh_passenger" depart="450.00" departLane="best" departSpeed="max" from="637980525#0" to="-866003620#0" via="-229984733#5"/>
    <trip id="veh91" type="veh_passenger" depart="455.00" departLane="best" departSpeed="max" from="-215555541" to="215555541" via="24804953"/>
    <trip id="veh92" type="veh_passenger" depart="460.00" departLane="best" departSpeed="max" from="229739446#0" to="198806390" via="24828277#3"/>
    <trip id="veh94" type="veh_passenger" depart="470.00" departLane="best" departSpeed="max" from="48656852#0" to="-229984733#0" via="44796867#0"/>
    <trip id="veh95" type="veh_passenger" depart="475.00" departLane="best" departSpeed="max" from="-44796922#6" to="-229739446#0" via="-44796922#3"/>
    <trip id="veh97" type="veh_passenger" depart="485.00" departLane="best" departSpeed="max" from="24804868#0" to="24804444#3" via="24804953"/>
    <trip id="veh98" type="veh_passenger" depart="490.00" departLane="best" departSpeed="max" from="-127195808" to="49516098#1" via="-229739446#4"/>
    <trip id="veh99" type="veh_passenger" depart="495.00" departLane="best" departSpeed="max" from="48656852#0" to="44796922#6" via="24804918#1"/>
    <trip id="veh100" type="veh_passenger" depart="500.00" departLane="best" departSpeed="max" from="229739446#0" to="-866003620#0" via="-24805376#1"/>
    <trip id="veh103" type="veh_passenger" depart="515.00" departLane="best" departSpeed="max" from="-24826429" to="44796867#5" via="-229747038"/>
    <trip id="veh104" type="veh_passenger" depart="520.00" departLane="best" from="44796867#3" to="24828277#5" via="229741783"/>
    <trip id="veh105" type="veh_passenger" depart="525.00" departLane="best" departSpeed="max" from="-215555575#2" to="48656851" via="49516119"/>
    <trip id="veh106" type="veh_passenger" depart="530.00" departLane="best" departSpeed="max" from="668160773#0" to="49516098#1" via="44793964#0"/>
    <trip id="veh107" type="veh_passenger" depart="535.00" departLane="best" departSpeed="max" from="-127195808" to="215555575#2" via="24829856"/>
    <trip id="veh108" type="veh_passenger" depart="540.00" departLane="best" departSpeed="max" from="637980525#0" to="48656851" via="44793927#2"/>
    <trip id="veh109" type="veh_passenger" depart="545.00" departLane="best" departSpeed="max" from="24807713#0" to="44796867#5" via="-44796884"/>
    <trip id="veh110" type="veh_passenger" depart="550.00" departLane="best" departSpeed="max" from="-215555541" to="48656851" via="44796922#2"/>
    <trip id="veh111" type="veh_passenger" depart="555.00" departLane="best" departSpeed="max" from="-24807752#2" to="24807752#2" via="44793970#0"/>
    <trip id="veh112" type="veh_passenger" depart="560.00" departLane="best" departSpeed="max" from="-24826574" to="215555527" via="44793904#1"/>
    <trip id="veh113" type="veh_passenger" depart="565.00" departLane="best" departSpeed="max" from="-127195808" to="215555575#2" via="-24807701#0"/>
    <trip id="veh114" type="veh_passenger" depart="570.00" departLane="best" departSpeed="max" from="24828279#0" to="215555541" via="668160773#2"/>
    <trip id="veh115" type="veh_passenger" depart="575.00" departLane="best" departSpeed="max" from="127195809" to="-866003620#0" via="637980525#3"/>
    <trip id="veh116" type="veh_passenger" depart="580.00" departLane="best" departSpeed="max" from="668160773#0" to="49516108#1" via="-24807655"/>
    <trip id="veh117" type="veh_passenger" depart="585.00" departLane="best" departSpeed="max" from="-24826429" to="24804444#3" via="-229747042"/>
    <trip id="veh118" type="veh_passenger" depart="590.00" departLane="best" departSpeed="max" from="24804868#0" to="24826574" via="215555515#0"/>
    <trip id="veh119" type="veh_passenger" depart="595.00" departLane="best" departSpeed="max" from="-866003620#1" to="24826429" via="215555584#2"/>
    <trip id="veh120" type="veh_passenger" depart="600.00" departLane="best" departSpeed="max" from="-24826429" to="-229739446#0" via="24826412#1"/>
    <trip id="veh122" type="veh_passenger" depart="610.00" departLane="best" departSpeed="max" from="24804868#0" to="229739461#1" via="24807701#0"/>
    <trip id="veh123" type="veh_passenger" depart="615.00" departLane="best" departSpeed="max" from="-198806099" to="215555575#2" via="24807676#1"/>
    <trip id="veh124" type="veh_passenger" depart="620.00" departLane="best" departSpeed="max" from="-43960791" to="44793791#3" via="44796867#1"/>
    <trip id="veh125" type="veh_passenger" depart="625.00" departLane="best" departSpeed="max" from="-24826574" to="229998116#2" via="-697837884#1"/>
    <trip id="veh126" type="veh_passenger" depart="630.00" departLane="best" departSpeed="max" from="-44796867#5" to="-866003620#0" via="-49516119"/>
    <trip id="veh127" type="veh_passenger" depart="635.00" departLane="best" departSpeed="max" from="-44796867#5" to="24828319" via="637980525#3"/>
    <trip id="veh128" type="veh_passenger" depart="640.00" departLane="best" departSpeed="max" from="48656852#0" to="215555563" via="24807598#0"/>
    <trip id="veh129" type="veh_passenger" depart="645.00" departLane="best" departSpeed="max" from="127195809" to="215555541" via="-129534287"/>
    <trip id="veh130" type="veh_passenger" depart="650.00" departLane="best" departSpeed="max" from="-44796922#6" to="24828319" via="24805376#0"/>
    <trip id="veh131" type="veh_passenger" depart="655.00" departLane="best" departSpeed="max" from="-48656851" to="198806390" via="229747040"/>
    <trip id="veh132" type="veh_passenger" depart="660.00" departLane="best" departSpeed="max" from="-48656851" to="44796867#5" via="49516099"/>
    <trip id="veh134" type="veh_passenger" depart="670.00" departLane="best" departSpeed="max" from="229739460#0" to="44796922#6" via="215555528"/>
    <trip id="veh135" type="veh_passenger" depart="675.00" departLane="best" departSpeed="max" from="24804868#0" to="198806390" via="24807701#1"/>
    <trip id="veh136" type="veh_passenger" depart="680.00" departLane="best" departSpeed="max" from="-24807752#2" to="215555527" via="-215555527"/>
    <trip id="veh137" type="veh_passenger" depart="685.00" departLane="best" departSpeed="max" from="-48656851" to="-229984733#0" via="44796867#1"/>
    <trip id="veh138" type="veh_passenger" depart="690.00" departLane="best" departSpeed="max" from="-44796867#5" to="198806099" via="24807645#3"/>
    <trip id="veh139" type="veh_passenger" depart="695.00" departLane="best" departSpeed="max" from="24803677#0" to="215555527" via="229998116#0"/>
    <trip id="veh140" type="veh_passenger" depart="700.00" departLane="best" departSpeed="max" from="229984733#0" to="44793952#1" via="-215555515#1"/>
    <trip id="veh141" type="veh_passenger" depart="705.00" departLane="best" departSpeed="max" from="24804918#0" to="24804444#3" via="-229747039"/>
    <trip id="veh143" type="veh_passenger" depart="715.00" departLane="best" departSpeed="max" from="-198806099" to="48656851" via="-44796867#0"/>
    <trip id="veh144" type="veh_passenger" depart="720.00" departLane="best" departSpeed="max" from="-44796922#6" to="24828319" via="44793927#2"/>
    <trip id="veh145" type="veh_passenger" depart="725.00" departLane="best" departSpeed="max" from="668160773#0" to="49516108#1" via="24805435#0"/>
    <trip id="veh146" type="veh_passenger" depart="730.00" departLane="best" departSpeed="max" from="48656852#0" to="44793791#3" via="24807596#1"/>
    <trip id="veh147" type="veh_passenger" depart="735.00" departLane="best" departSpeed="max" from="-866003620#1" to="24826328#1" via="44793996"/>
    <trip id="veh148" type="veh_passenger" depart="740.00" departLane="best" departSpeed="max" from="48656852#0" to="24807752#2" via="25543096#10"/>
    <trip id="veh149" type="veh_passenger" depart="745.00" departLane="best" departSpeed="max" from="-24826429" to="24828277#5" via="-44796867#0"/>
    <trip id="veh150" type="veh_passenger" depart="750.00" departLane="best" departSpeed="max" from="24804918#0" to="24828277#5" via="24803884"/>
    <trip id="veh151" type="veh_passenger" depart="755.00" departLane="best" departSpeed="max" from="-24826574" to="215555541" via="-229741783"/>
    <trip id="veh152" type="veh_passenger" depart="760.00" departLane="best" departSpeed="max" from="-24826574" to="24826328#1" via="215555515#2"/>
    <trip id="veh153" type="veh_passenger" depart="765.00" departLane="best" departSpeed="max" from="-215555563" to="25543096#14" via="-44793935"/>
    <trip id="veh154" type="veh_passenger" depart="770.00" departLane="best" departSpeed="max" from="24803677#0" to="229998116#2" via="-215555584#3"/>
    <trip id="veh155" type="veh_passenger" depart="775.00" departLane="best" departSpeed="max" from="127195809" to="198806390" via="229744979"/>
    <trip id="veh156" type="veh_passenger" depart="780.00" departLane="best" departSpeed="max" from="-44796867#5" to="24826574" via="49516101"/>
    <trip id="veh157" type="veh_passenger" depart="785.00" departLane="best" departSpeed="max" from="24803677#0" to="44793952#1" via="44796867#4"/>
    <trip id="veh158" type="veh_passenger" depart="790.00" departLane="best" departSpeed="max" from="-44793952#1" to="215555575#2" via="-215555515#1"/>
    <trip id="veh159" type="veh_passenger" depart="795.00" departLane="best" departSpeed="max" from="24804868#0" to="49516108#1" via="44796867#3"/>
    <trip id="veh160" type="veh_passenger" depart="800.00" departLane="best" departSpeed="max" from="-44796867#5" to="24826328#1" via="25543096#11"/>
    <trip id="veh161" type="veh_passenger" depart="805.00" departLane="best" departSpeed="max" from="229739446#0" to="198806390" via="-44793792"/>
    <trip id="veh162" type="veh_passenger" depart="810.00" departLane="best" departSpeed="max" from="-44796922#6" to="215555575#2" via="-215555530#0"/>
    <trip id="veh163" type="veh_passenger" depart="815.00" departLane="best" departSpeed="max" from="229984733#0" to="198806099" via="229741782"/>
    <trip id="veh164" type="veh_passenger" depart="820.00" departLane="best" departSpeed="max" from="-48656851" to="24828277#5" via="-229984733#2"/>
    <trip id="veh165" type="veh_passenger" depart="825.00" departLane="best" departSpeed="max" from="-127195808" to="24826429" via="229739446#2"/>
    <trip id="veh166" type="veh_passenger" depart="830.00" departLane="best" departSpeed="max" from="-127195808" to="127195808" via="24807652#1"/>
    <trip id="veh167" type="veh_passenger" depart="835.00" departLane="best" departSpeed="max" from="-48656851" to="229739461#1" via="-215555569#1"/>
    <trip id="veh168" type="veh_passenger" depart="840.00" departLane="best" departSpeed="max" from="-24807752#2" to="44793952#1" via="215555516#3"/>
    <trip id="veh169" type="veh_passenger" depart="845.00" departLane="best" departSpeed="max" from="-44793952#1" to="44796922#6" via="25543096#13"/>
    <trip id="veh170" type="veh_passenger" depart="850.00" departLane="best" departSpeed="max" from="-24826429" to="-229739446#0" via="-229741788#0"/>
    <trip id="veh171" type="veh_passenger" depart="855.00" departLane="best" departSpeed="max" from="127195809" to="215555575#2" via="866003620#1"/>
    <trip id="veh172" type="veh_passenger" depart="860.00" departLane="best" from="229747035" to="24828319" via="44793789#0"/>
    <trip id="veh173" type="veh_passenger" depart="865.00" departLane="best" departSpeed="max" from="24804868#0" to="198806390" via="668160769#1"/>
    <trip id="veh174" type="veh_passenger" depart="870.00" departLane="best" departSpeed="max" from="-127195808" to="-866003620#0" via="-24805377"/>
    <trip id="veh175" type="veh_passenger" depart="875.00" departLane="best" departSpeed="max" from="229984733#0" to="198806390" via="24805373#0"/>
    <trip id="veh176" type="veh_passenger" depart="880.00" departLane="best" departSpeed="max" from="24803677#0" to="198806099" via="25543096#7"/>
    <trip id="veh177" type="veh_passenger" depart="885.00" departLane="best" departSpeed="max" from="229739446#0" to="-866003620#0" via="25543096#11"/>
    <trip id="veh178" type="veh_passenger" depart="890.00" departLane="best" departSpeed="max" from="24807713#0" to="-866003620#0" via="668160773#11"/>
    <trip id="veh179" type="veh_passenger" depart="895.00" departLane="best" departSpeed="max" from="-127195808" to="24828319" via="129534287"/>
    <trip id="veh180" type="veh_passenger" depart="900.00" departLane="best" departSpeed="max" from="637980525#0" to="44793791#3" via="229739446#3"/>
    <trip id="veh181" type="veh_passenger" depart="905.00" departLane="best" from="-215555516#4" to="24828277#5" via="24807752#0"/>
    <trip id="veh182" type="veh_passenger" depart="910.00" departLane="best" departSpeed="max" from="-215555541" to="48656851" via="25543097#0"/>
    <trip id="veh183" type="veh_passenger" depart="915.00" departLane="best" departSpeed="max" from="229739446#0" to="668160769#2" via="-229984706#2"/>
    <trip id="veh184" type="veh_passenger" depart="920.00" departLane="best" departSpeed="max" from="24804918#0" to="24804444#3" via="215555536#0"/>
    <trip id="veh185" type="veh_passenger" depart="925.00" departLane="best" departSpeed="max" from="-44793952#1" to="215555575#2" via="24790521#3"/>
    <trip id="veh186" type="veh_passenger" depart="930.00" departLane="best" departSpeed="max" from="24828279#0" to="-866003620#0" via="44793994#1"/>
    <trip id="veh187" type="veh_passenger" depart="935.00" departLane="best" departSpeed="max" from="637980525#0" to="44796922#6" via="24807645#6"/>
    <trip id="veh188" type="veh_passenger" depart="940.00" departLane="best" departSpeed="max" from="24803677#0" to="44793791#3" via="229747037"/>
    <trip id="veh189" type="veh_passenger" depart="945.00" departLane="best" departSpeed="max" from="668160773#0" to="44796922#6" via="-44796922#0"/>
    <trip id="veh190" type="veh_passenger" depart="950.00" departLane="best" departSpeed="max" from="127195809" to="24804444#3" via="229984733#3"/>
    <trip id="veh191" type="veh_passenger" depart="955.00" departLane="best" departSpeed="max" from="24804868#0" to="48656851" via="-44796884"/>
    <trip id="veh194" type="veh_passenger" depart="970.00" departLane="best" departSpeed="max" from="-44793952#1" to="48656851" via="-215555530#0"/>
    <trip id="veh195" type="veh_passenger" depart="975.00" departLane="best" departSpeed="max" from="-215555575#2" to="44796867#5" via="-24829832#0"/>
    <trip id="veh196" type="veh_passenger" depart="980.00" departLane="best" departSpeed="max" from="-43960791" to="25543096#14" via="44796922#5"/>
    <trip id="veh197" type="veh_passenger" depart="985.00" departLane="best" departSpeed="max" from="-24826574" to="49516108#1" via="-215555516#1"/>
    <trip id="veh199" type="veh_passenger" depart="995.00" departLane="best" departSpeed="max" from="24804868#0" to="24828277#5" via="24807752#0"/>
    <trip id="veh200" type="veh_passenger" depart="1000.00" departLane="best" departSpeed="max" from="-48656851" to="-229984733#0" via="44793904#0"/>
    <trip id="veh201" type="veh_passenger" depart="1005.00" departLane="best" departSpeed="max" from="-24807752#2" to="215555563" via="24807752#1"/>
    <trip id="veh202" type="veh_passenger" depart="1010.00" departLane="best" departSpeed="max" from="229739446#0" to="24826328#1" via="229984706#2"/>
    <trip id="veh203" type="veh_passenger" depart="1015.00" departLane="best" departSpeed="max" from="-44796922#6" to="215555575#2" via="25543096#11"/>
    <trip id="veh204" type="veh_passenger" depart="1020.00" departLane="best" departSpeed="max" from="24803677#0" to="215555527" via="-44796922#1"/>
    <trip id="veh205" type="veh_passenger" depart="1025.00" departLane="best" departSpeed="max" from="-215555563" to="-866003620#0" via="-24807701#0"/>
    <trip id="veh206" type="veh_passenger" depart="1030.00" departLane="best" departSpeed="max" from="127195809" to="198806099" via="25543096#5"/>
    <trip id="veh207" type="veh_passenger" depart="1035.00" departLane="best" departSpeed="max" from="-24807752#2" to="44793791#3" via="229984733#3"/>