<?xml version="1.0" encoding="UTF-8"?>

<!-- generated on 2022-06-13 14:47:50 by Eclipse SUMO duarouter Version 1.12.0
<configuration xmlns:xsi="http://www.w3.org/2001/XMLSchema-instance" xsi:noNamespaceSchemaLocation="http://sumo.dlr.de/xsd/duarouterConfiguration.xsd">

    <input>
        <net-file value="osm.net.xml"/>
        <route-files value="osm.passenger.trips.xml"/>
    </input>

    <output>
        <output-file value="osm.passenger.trips.xml.tmp"/>
        <write-trips value="true"/>
    </output>

    <time>
        <begin value="0"/>
        <end value="1200"/>
    </time>

    <report>
        <no-warnings value="true"/>
        <ignore-errors value="true"/>
        <no-step-log value="true"/>
    </report>

</configuration>
-->

<routes xmlns:xsi="http://www.w3.org/2001/XMLSchema-instance" xsi:noNamespaceSchemaLocation="http://sumo.dlr.de/xsd/routes_file.xsd">
    <vType id="veh_passenger" maxSpeed="6.35" vClass="passenger"/>
    <trip id="veh1" type="veh_passenger" depart="8.00" departLane="best" departSpeed="max" from="24807713#0" to="44796867#5" via="-215555515#1"/>
    <trip id="veh2" type="veh_passenger" depart="16.00" departLane="best" departSpeed="max" from="24803677#0" to="127195808" via="215555530#1"/>
    <trip id="veh3" type="veh_passenger" depart="24.00" departLane="best" departSpeed="max" from="-215555541" to="24826574" via="44796867#0"/>
    <trip id="veh4" type="veh_passenger" depart="32.00" departLane="best" departSpeed="max" from="229984733#0" to="127195808" via="24807596#0"/>
    <trip id="veh5" type="veh_passenger" depart="40.00" departLane="best" departSpeed="max" from="-24826574" to="49516108#1" via="-24829824"/>
    <trip id="veh6" type="veh_passenger" depart="48.00" departLane="best" departSpeed="max" from="-44796867#5" to="24804444#3" via="49516116#3"/>
    <trip id="veh7" type="veh_passenger" depart="56.00" departLane="best" departSpeed="max" from="24828279#0" to="44793791#3" via="-215555516#1"/>
    <trip id="veh9" type="veh_passenger" depart="72.00" departLane="best" departSpeed="max" from="229984733#0" to="127195808" via="24807596#0"/>
    <trip id="veh10" type="veh_passenger" depart="80.00" departLane="best" from="44793997#2" to="-229984733#0" via="668160769#0"/>
    <trip id="veh11" type="veh_passenger" depart="88.00" departLane="best" from="668160773#11" to="24804444#3" via="24807659"/>
    <trip id="veh12" type="veh_passenger" depart="96.00" departLane="best" departSpeed="max" from="127195809" to="198806390" via="-229984706#2"/>
    <trip id="veh13" type="veh_passenger" depart="104.00" departLane="best" departSpeed="max" from="-44793952#1" to="198806390" via="24805377"/>
    <trip id="veh14" type="veh_passenger" depart="112.00" departLane="best" departSpeed="max" from="24804868#0" to="668160769#2" via="24807701#1"/>
    <trip id="veh15" type="veh_passenger" depart="120.00" departLane="best" departSpeed="max" from="-24826429" to="24804444#3" via="49516117#1"/>
    <trip id="veh16" type="veh_passenger" depart="128.00" departLane="best" departSpeed="max" from="637980525#0" to="127195808" via="44796867#1"/>
    <trip id="veh17" type="veh_passenger" depart="136.00" departLane="best" departSpeed="max" from="-44796922#6" to="668160773#10" via="668160773#1"/>
    <trip id="veh18" type="veh_passenger" depart="144.00" departLane="best" departSpeed="max" from="229739446#0" to="127195808" via="24828277#3"/>
    <trip id="veh19" type="veh_passenger" depart="152.00" departLane="best" from="229739446#1" to="48656851" via="24790521#1"/>
    <trip id="veh20" type="veh_passenger" depart="160.00" departLane="best" from="668160773#4" to="198806390" via="-229739446#3"/>
    <trip id="veh21" type="veh_passenger" depart="168.00" departLane="best" departSpeed="max" from="24807713#0" to="24828319" via="-697837882#0"/>
    <trip id="veh22" type="veh_passenger" depart="176.00" departLane="best" departSpeed="max" from="229739460#0" to="198806099" via="24828277#3"/>
    <trip id="veh25" type="veh_passenger" depart="200.00" departLane="best" departSpeed="max" from="-43960791" to="198806390" via="44793904#1"/>
    <trip id="veh26" type="veh_passenger" depart="208.00" departLane="best" departSpeed="max" from="-44796922#6" to="24828319" via="637980525#3"/>
    <trip id="veh27" type="veh_passenger" depart="216.00" departLane="best" departSpeed="max" from="-44796922#6" to="24828319" via="24805376#0"/>
    <trip id="veh28" type="veh_passenger" depart="224.00" departLane="best" departSpeed="max" from="-48656851" to="198806390" via="229747040"/>
    <trip id="veh30" type="veh_passenger" depart="240.00" departLane="best" departSpeed="max" from="24804918#0" to="198806390" via="24807701#1"/>
    <trip id="veh31" type="veh_passenger" depart="248.00" departLane="best" departSpeed="max" from="24803677#0" to="215555527" via="229998116#0"/>
    <trip id="veh32" type="veh_passenger" depart="256.00" departLane="best" departSpeed="max" from="-198806099" to="48656851" via="-44796867#0"/>
    <trip id="veh33" type="veh_passenger" depart="264.00" departLane="best" departSpeed="max" from="668160773#0" to="49516108#1" via="24805435#0"/>
    <trip id="veh34" type="veh_passenger" depart="272.00" departLane="best" departSpeed="max" from="-24826574" to="215555541" via="-229741783"/>
    <trip id="veh35" type="veh_passenger" depart="280.00" departLane="best" departSpeed="max" from="24803677#0" to="127195808" via="229741782"/>
    <trip id="veh36" type="veh_passenger" depart="288.00" departLane="best" departSpeed="max" from="-127195808" to="24826328#1" via="229739446#2"/>
    <trip id="veh37" type="veh_passenger" depart="296.00" departLane="best" departSpeed="max" from="229984733#0" to="24828277#5" via="44793789#0"/>
    <trip id="veh38" type="veh_passenger" depart="304.00" departLane="best" departSpeed="max" from="24803677#0" to="198806390" via="24805373#0"/>
    <trip id="veh39" type="veh_passenger" depart="312.00" departLane="best" departSpeed="max" from="24807713#0" to="-24807690" via="668160773#11"/>
    <trip id="veh40" type="veh_passenger" depart="320.00" departLane="best" departSpeed="max" from="229739460#0" to="668160769#2" via="-229984706#2"/>
    <trip id="veh41" type="veh_passenger" depart="328.00" departLane="best" departSpeed="max" from="-44796867#5" to="215555575#2" via="24790521#3"/>
    <trip id="veh44" type="veh_passenger" depart="352.00" departLane="best" departSpeed="max" from="-24826574" to="49516108#1" via="-215555516#1"/>
    <trip id="veh45" type="veh_passenger" depart="360.00" departLane="best" departSpeed="max" from="-215555541" to="24807752#2" via="24828277#4"/>
    <trip id="veh47" type="veh_passenger" depart="376.00" departLane="best" departSpeed="max" from="127195809" to="198806099" via="25543096#5"/>
    <trip id="veh48" type="veh_passenger" depart="384.00" departLane="best" departSpeed="max" from="-215555541" to="198806390" via="-24807701#0"/>
    <trip id="veh49" type="veh_passenger" depart="392.00" departLane="best" departSpeed="max" from="-198806099" to="24807701#0" via="637980525#4"/>
    <trip id="veh50" type="veh_passenger" depart="400.00" departLane="best" departSpeed="max" from="24807713#0" to="-229984733#0" via="229739460#1"/>
    <trip id="veh51" type="veh_passenger" depart="408.00" departLane="best" departSpeed="max" from="229739460#0" to="49516108#1" via="25543096#0"/>
    <trip id="veh52" type="veh_passenger" depart="416.00" departLane="best" from="49516119" to="24828277#1" via="44793791#1"/>
    <trip id="veh53" type="veh_passenger" depart="424.00" departLane="best" departSpeed="max" from="24803677#0" to="24807752#2" via="637980525#4"/>
    <trip id="veh54" type="veh_passenger" depart="432.00" departLane="best" departSpeed="max" from="-215555541" to="44796922#6" via="668160773#10"/>
    <trip id="veh55" type="veh_passenger" depart="440.00" departLane="best" departSpeed="max" from="24828279#0" to="25543096#14" via="215555516#4"/>
    <trip id="veh56" type="veh_passenger" depart="448.00" departLane="best" departSpeed="max" from="24828279#0" to="25543096#8" via="229998116#1"/>
    <trip id="veh57" type="veh_passenger" depart="456.00" departLane="best" departSpeed="max" from="127195809" to="215555541" via="44793994#0"/>
    <trip id="veh58" type="veh_passenger" depart="464.00" departLane="best" departSpeed="max" from="-44793952#1" to="24826328#1" via="24804953"/>
    <trip id="veh59" type="veh_passenger" depart="472.00" departLane="best" departSpeed="max" from="24803677#0" to="198806390" via="24805373#4"/>
    <trip id="veh60" type="veh_passenger" depart="480.00" departLane="best" departSpeed="max" from="24804868#0" to="229739461#1" via="44793964#0"/>
    <trip id="veh61" type="veh_passenger" depart="488.00" departLane="best" departSpeed="max" from="-215555575#2" to="668160769#2" via="229984706#0"/>
    <trip id="veh62" type="veh_passenger" depart="496.00" departLane="best" departSpeed="max" from="-198806099" to="215555541" via="44793917"/>
    <trip id="veh63" type="veh_passenger" depart="504.00" departLane="best" departSpeed="max" from="-215555541" to="24826574" via="44796922#1"/>
    <trip id="veh64" type="veh_passenger" depart="512.00" departLane="best" departSpeed="max" from="-44793952#1" to="24828277#5" via="24805377"/>
    <trip id="veh65" type="veh_passenger" depart="520.00" departLane="best" departSpeed="max" from="229739460#0" to="49516100" via="229998116#1"/>
    <trip id="veh66" type="veh_passenger" depart="528.00" departLane="best" departSpeed="max" from="-24826574" to="24826574" via="44793927#0"/>
    <trip id="veh67" type="veh_passenger" depart="536.00" departLane="best" departSpeed="max" from="-215555563" to="-866003620#0" via="668160773#10"/>
    <trip id="veh68" type="veh_passenger" depart="544.00" departLane="best" departSpeed="max" from="668160773#0" to="44793791#3" via="44796869#1"/>
    <trip id="veh69" type="veh_passenger" depart="552.00" departLane="best" departSpeed="max" from="127195809" to="24828319" via="229747044#1"/>
    <trip id="veh70" type="veh_passenger" depart="560.00" departLane="best" departSpeed="max" from="24803677#0" to="44796922#6" via="24805376#2"/>
    <trip id="veh71" type="veh_passenger" depart="568.00" departLane="best" departSpeed="max" from="637980525#0" to="198806390" via="-229747042"/>
    <trip id="veh72" type="veh_passenger" depart="576.00" departLane="best" departSpeed="max" from="-127195808" to="24826328#1" via="44796924#1"/>
    <trip id="veh73" type="veh_passenger" depart="584.00" departLane="best" departSpeed="max" from="-44796922#6" to="49516108#1" via="-229984733#8"/>
    <trip id="veh74" type="veh_passenger" depart="592.00" departLane="best" departSpeed="max" from="-44796867#5" to="49516108#1" via="229747040"/>
    <trip id="veh75" type="veh_passenger" depart="600.00" departLane="best" departSpeed="max" from="-44796867#5" to="-697837884#1" via="-24807662#3"/>
    <trip id="veh76" type="veh_passenger" depart="608.00" departLane="best" departSpeed="max" from="24828279#0" to="24828319" via="229747044#1"/>
    <trip id="veh77" type="veh_passenger" depart="616.00" departLane="best" departSpeed="max" from="-866003620#1" to="25543096#12" via="229739461#0"/>
    <trip id="veh78" type="veh_passenger" depart="624.00" departLane="best" departSpeed="max" from="-215555541" to="-229747040" via="24807596#0"/>
    <trip id="veh79" type="veh_passenger" depart="632.00" departLane="best" departSpeed="max" from="-48656851" to="-229984733#0" via="24807594#0"/>
    <trip id="veh80" type="veh_passenger" depart="640.00" departLane="best" departSpeed="max" from="24804918#0" to="198806390" via="24828277#4"/>
    <trip id="veh81" type="veh_passenger" depart="648.00" departLane="best" departSpeed="max" from="-48656851" to="-229984733#0" via="229744979"/>
    <trip id="veh82" type="veh_passenger" depart="656.00" departLane="best" departSpeed="max" from="-44796922#6" to="229739461#1" via="24807676#2"/>
    <trip id="veh83" type="veh_passenger" depart="664.00" departLane="best" departSpeed="max" from="24804918#0" to="24826328#1" via="44793964#0"/>
    <trip id="veh84" type="veh_passenger" depart="672.00" departLane="best" departSpeed="max" from="229739460#0" to="215555575#2" via="24805227"/>
    <trip id="veh85" type="veh_passenger" depart="680.00" departLane="best" departSpeed="max" from="-215555563" to="24828319" via="215555555"/>
    <trip id="veh86" type="veh_passenger" depart="688.00" departLane="best" departSpeed="max" from="24804918#0" to="44793791#3" via="44796922#0"/>
    <trip id="veh87" type="veh_passenger" depart="696.00" departLane="best" departSpeed="max" from="668160773#0" to="215555575#2" via="24807577#0"/>
    <trip id="veh88" type="veh_passenger" depart="704.00" departLane="best" departSpeed="max" from="24807713#0" to="668160769#2" via="44794007"/>
    <trip id="veh89" type="veh_passenger" depart="712.00" departLane="best" departSpeed="max" from="24804918#0" to="24790521#3" via="-229747043#1"/>
    <trip id="veh90" type="veh_passenger" depart="720.00" departLane="best" departSpeed="max" from="-24826574" to="24807752#2" via="24807713#2"/>
    <trip id="veh91" type="veh_passenger" depart="728.00" departLane="best" departSpeed="max" from="-215555541" to="-229747040" via="44796869#1"/>
    <trip id="veh92" type="veh_passenger" depart="736.00" departLane="best" departSpeed="max" from="229739446#0" to="25543096#14" via="24805374#0"/>
    <trip id="veh94" type="veh_passenger" depart="752.00" departLane="best" departSpeed="max" from="48656852#0" to="44793791#3" via="215555536#2"/>
    <trip id="veh95" type="veh_passenger" depart="760.00" departLane="best" departSpeed="max" from="24807713#0" to="198806390" via="44793970#0"/>
    <trip id="veh96" type="veh_passenger" depart="768.00" departLane="best" from="24805161#1" to="44793952#1" via="229998116#0"/>
    <trip id="veh97" type="veh_passenger" depart="776.00" departLane="best" departSpeed="max" from="24804918#0" to="49516100" via="229747043#0"/>
    <trip id="veh98" type="veh_passenger" depart="784.00" departLane="best" departSpeed="max" from="48656852#0" to="44796867#5" via="229747043#1"/>
    <trip id="veh99" type="veh_passenger" depart="792.00" departLane="best" departSpeed="max" from="-215555541" to="215555541" via="24807713#2"/>
    <trip id="veh100" type="veh_passenger" depart="800.00" departLane="best" departSpeed="max" from="24804868#0" to="49516100" via="24807662#2"/>
    <trip id="veh101" type="veh_passenger" depart="808.00" departLane="best" departSpeed="max" from="24803677#0" to="24826429" via="229739446#2"/>
    <trip id="veh102" type="veh_passenger" depart="816.00" departLane="best" departSpeed="max" from="24828279#0" to="44793952#1" via="-229747037"/>
    <trip id="veh103" type="veh_passenger" depart="824.00" departLane="best" departSpeed="max" from="-44796867#5" to="44796922#6" via="-24805435#1"/>
    <trip id="veh104" type="veh_passenger" depart="832.00" departLane="best" from="24804918#1" to="127195808" via="44793952#0"/>
    <trip id="veh105" type="veh_passenger" depart="840.00" departLane="best" departSpeed="max" from="24828279#0" to="49516108#1" via="215555571#0"/>
    <trip id="veh107" type="veh_passenger" depart="856.00" departLane="best" departSpeed="max" from="-44796867#5" to="668160769#2" via="24803893#2"/>
    <trip id="veh108" type="veh_passenger" depart="864.00" departLane="best" departSpeed="max" from="24807713#0" to="215555541" via="-229984733#6"/>
    <trip id="veh109" type="veh_passenger" depart="872.00" departLane="best" departSpeed="max" from="-198806099" to="44796867#5" via="229747034"/>
    <trip id="veh110" type="veh_passenger" depart="880.00" departLane="best" departSpeed="max" from="229739460#0" to="229998116#2" via="-44793995#0"/>
    <trip id="veh112" type="veh_passenger" depart="896.00" departLane="best" departSpeed="max" from="24804918#0" to="229739461#1" via="48658195#1"/>
    <trip id="veh113" type="veh_passenger" depart="904.00" departLane="best" departSpeed="max" from="668160773#0" to="24807752#2" via="229998116#0"/>
    <trip id="veh114" type="veh_passenger" depart="912.00" departLane="best" departSpeed="max" from="24804868#0" to="24826574" via="-229741785"/>
    <trip id="veh115" type="veh_passenger" depart="920.00" departLane="best" departSpeed="max" from="-215555541" to="215555563" via="24807676#0"/>
    <trip id="veh116" type="veh_passenger" depart="928.00" departLane="best" departSpeed="max" from="668160773#0" to="-229984733#0" via="668160769#1"/>
    <trip id="veh117" type="veh_passenger" depart="936.00" departLane="best" departSpeed="max" from="24803677#0" to="-866003620#0" via="668160771#1"/>
    <trip id="veh118" type="veh_passenger" depart="944.00" departLane="best" departSpeed="max" from="-24826574" to="24807752#2" via="49516116#3"/>
    <trip id="veh119" type="veh_passenger" depart="952.00" departLane="best" departSpeed="max" from="127195809" to="198806099" via="-229984714"/>
    <trip id="veh120" type="veh_passenger" depart="960.00" departLane="best" departSpeed="max" from="-43960791" to="44793791#1" via="866003620#1"/>
    <trip id="veh121" type="veh_passenger" depart="968.00" departLane="best" departSpeed="max" from="-215555541" to="24828277#5" via="668160773#4"/>
    <trip id="veh122" type="veh_passenger" depart="976.00" departLane="best" from="44793997#2" to="24828277#5" via="44793789#0"/>
    <trip id="veh123" type="veh_passenger" depart="984.00" departLane="best" from="-229984706#1" to="24803893#3" via="668160773#11"/>
    <trip id="veh124" type="veh_passenger" depart="992.00" departLane="best" departSpeed="max" from="24804868#0" to="49516108#1" via="215555534"/>
    <trip id="veh125" type="veh_passenger" depart="1000.00" departLane="best" departSpeed="max" from="229984733#0" to="-866003620#0" via="24804918#3"/>
    <trip id="veh126" type="veh_passenger" depart="1008.00" departLane="best" departSpeed="max" from="-43960791" to="24807752#2" via="24804444#0"/>
    <trip id="veh127" type="veh_passenger" depart="1016.00" departLane="best" departSpeed="max" from="229984733#0" to="24826574" via="24828277#4"/>
    <trip id="veh128" type="veh_passenger" depart="1024.00" departLane="best" departSpeed="max" from="24828279#0" to="44796922#6" via="24805373#0"/>
    <trip id="veh129" type="veh_passenger" depart="1032.00" departLane="best" departSpeed="max" from="24804868#0" to="668160769#2" via="44796869#1"/>
    <trip id="veh130" type="veh_passenger" depart="1040.00" departLane="best" departSpeed="max" from="-866003620#1" to="198806390" via="668160773#11"/>
    <trip id="veh131" type="veh_passenger" depart="1048.00" departLane="best" from="-44796867#1" to="24826429" via="229739460#1"/>
    <trip id="veh132" type="veh_passenger" depart="1056.00" departLane="best" departSpeed="max" from="-24807752#2" to="-229984733#0" via="24804953"/>
    <trip id="veh133" type="veh_passenger" depart="1064.00" departLane="best" departSpeed="max" from="-44793952#1" to="44793952#1" via="637980525#3"/>
    <trip id="veh134" type="veh_passenger" depart="1072.00" departLane="best" departSpeed="max" from="-43960791" to="44796922#6" via="215555528"/>
    <trip id="veh135" type="veh_passenger" depart="1080.00" departLane="best" departSpeed="max" from="24807713#0" to="24828319" via="215555571#1"/>
    <trip id="veh136" type="veh_passenger" depart="1088.00" departLane="best" departSpeed="max" from="668160773#0" to="44796867#5" via="24805376#1"/>
    <trip id="veh137" type="veh_passenger" depart="1096.00" departLane="best" departSpeed="max" from="24803677#0" to="198806099" via="24807596#0"/>
    <trip id="veh138" type="veh_passenger" depart="1104.00" departLane="best" departSpeed="max" from="-24826429" to="198806390" via="24805161#1"/>
    <trip id="veh139" type="veh_passenger" depart="1112.00" departLane="best" departSpeed="max" from="668160773#0" to="215555541" via="-49516120"/>
    <trip id="veh140" type="veh_passenger" depart="1120.00" departLane="best" departSpeed="max" from="-24807752#2" to="215555563" via="24826340"/>
    <trip id="veh142" type="veh_passenger" depart="1136.00" departLane="best" departSpeed="max" from="-44796867#5" to="44796922#6" via="668160773#8"/>
    <trip id="veh143" type="veh_passenger" depart="1144.00" departLane="best" departSpeed="max" from="637980525#0" to="215555541" via="44793927#4"/>
    <trip id="veh144" type="veh_passenger" depart="1152.00" departLane="best" departSpeed="max" from="-24826574" to="215555575#2" via="24828277#1"/>
    <trip id="veh146" type="veh_passenger" depart="1168.00" departLane="best" departSpeed="max" from="229739460#0" to="24828319" via="-44793995#1"/>
    <trip id="veh147" type="veh_passenger" depart="1176.00" departLane="best" departSpeed="max" from="637980525#0" to="49516108#1" via="229741783"/>
    <trip id="veh148" type="veh_passenger" depart="1184.00" departLane="best" departSpeed="max" from="-44796867#5" to="49516108#1" via="229998116#0"/>
    <trip id="veh149" type="veh_passenger" depart="1192.00" departLane="best" departSpeed="max" from="24828279#0" to="198806099" via="229984706#0"/>
</routes>
