<?xml version="1.0" encoding="UTF-8"?>

<!-- generated on 2022-01-21 03:09:57 by Eclipse SUMO duarouter Version 1.11.0
<configuration xmlns:xsi="http://www.w3.org/2001/XMLSchema-instance" xsi:noNamespaceSchemaLocation="http://sumo.dlr.de/xsd/duarouterConfiguration.xsd">

    <input>
        <net-file value="osm.net.xml"/>
        <route-files value="osm.passenger.trips.xml"/>
    </input>

    <output>
        <output-file value="routes.rou.xml"/>
        <alternatives-output value="routes.rou.alt.xml"/>
    </output>

    <time>
        <begin value="0"/>
        <end value="1200"/>
    </time>

    <report>
        <no-warnings value="true"/>
        <ignore-errors value="true"/>
        <no-step-log value="true"/>
    </report>

</configuration>
-->

<routes xmlns:xsi="http://www.w3.org/2001/XMLSchema-instance" xsi:noNamespaceSchemaLocation="http://sumo.dlr.de/xsd/routes_file.xsd">
    <vType id="veh_passenger" maxSpeed="5.80" vClass="passenger"/>
    <vehicle id="veh0" type="veh_passenger" depart="0.00" departLane="best" departSpeed="max">
        <route edges="229739460#0 229739460#1 24804953 24790602#1 668160771#0 -229747037 -697837882#0 -215555515#2 -215555515#1 -215555515#0 215555571#1 229747036#0 229747036#1 229747036#2 215555532 -215555516#1 215555527 -215555527 -24805376#2 -24805376#1 -24805376#0 668160773#7 668160773#8 668160773#10 668160773#11 25543097#0 25543097#1 24790521#0 24790521#1 24790521#2 24790521#3 215555541"/>
    </vehicle>
    <vehicle id="veh1" type="veh_passenger" depart="5.00" departLane="best" departSpeed="max">
        <route edges="-24807752#2 24807645#1 43960777 44793997#1 44793997#2 44793997#3 24829856 25543096#9 25543096#10 25543096#11 25543096#12 25543096#13 229741782 24807739 -24807633 44793917 49516118#1 -229984706#1 -229984706#0 49516116#3 49516116#4 24807577#0 24828319"/>
    </vehicle>
    <vehicle id="veh2" type="veh_passenger" depart="10.00" departLane="best" departSpeed="max">
        <route edges="48656852#0 44793952#0 -49516120 -44796869#0 44796922#0 44796922#1 44796922#2 44796922#3 44793904#0 44793904#1 24807752#0 24807752#1 24807752#2 -24807752#2 24807645#1 24807645#2 24807645#3 -24803884 215555571#0 215555571#1 215555571#2 215555571#3 215555584#2 215555584#3 215555516#4 229747039 24805378#0 24805378#1 -24805377 668160773#10 668160773#11 25543097#0 25543097#1 24790521#0 -229744979 24804444#2 24804444#3"/>
    </vehicle>
    <vehicle id="veh4" type="veh_passenger" depart="20.00" departLane="best" departSpeed="max">
        <route edges="-127195808 24805376#0 24805376#1 24805376#2 229747034 229747040 229747036#4 -129534287 24803893#0 24803893#1 24803893#2 24803893#3 25543096#5 25543096#6 25543096#7 25543096#8 25543096#9 25543096#10 25543096#11 25543096#12 24807752#0 -24807752#0 25543096#13 229741782 24807739 -24807633 44793917 49516118#1 -229984706#1 -229984706#0 49516116#3 49516116#4 24807577#0 24828319"/>
    </vehicle>
    <vehicle id="veh5" type="veh_passenger" depart="25.00" departLane="best" departSpeed="max">
        <route edges="127195809 24805374#0 24805374#1 215555528 215555557 229984733#5 229984733#6 229984733#8 -229739446#4 -229739446#3 -229739446#2 44793792 -44793792 229739446#2 229739446#3 229739446#4 215555571#0 215555571#1 229747036#0 229747036#1 229747036#2 215555532 -215555516#1 -24805376#2 -24805376#1 -24805376#0 668160773#7 24826574"/>
    </vehicle>
    <vehicle id="veh6" type="veh_passenger" depart="30.00" departLane="best" departSpeed="max">
        <route edges="24807713#0 -215555530#1 -215555530#0 -44796867#4 -44796867#3 -44796867#2 -44796867#1 -44796867#0 24807633 44793904#0 44793904#1 24807752#0 24807752#1 24807752#2 -24807752#2 24807645#1 24807645#2 24807645#3 -24803884 215555571#0 215555515#0 215555515#1 -215555515#1 -215555515#0 215555571#1 229747036#0 215555555 24807655 24807645#5 24807645#6 25543096#7 25543096#8 25543096#9 25543096#10 25543096#11 25543096#12 25543096#13 229741782 24807739 -24807633 44796867#0 44796867#1 44796867#2 44796867#3 44796867#4 44796867#5"/>
    </vehicle>
    <vehicle id="veh7" type="veh_passenger" depart="35.00" departLane="best" departSpeed="max">
        <route edges="24803677#0 24803677#1 24803677#2 24803677#3 25543096#0 25543096#1 25543096#2 25543096#3 25543096#4 25543096#5 25543096#6 25543096#7 25543096#8 25543096#9 25543096#10 25543096#11 25543096#12 25543096#13 229741782 24807739 -24807633 44796867#0 44796867#1 44796867#2 44796867#3 44796867#4 215555530#0 215555530#1 -215555530#1 -215555530#0 -44796867#4 -44796867#3 -44796867#2 -44796867#1 -44796867#0 24807633 44793904#0 44793904#1 24807752#0 24807752#1 24807752#2 -24807752#2 24807645#1 24807645#2 24807645#3 -24807655 -215555555 229747036#1 229747036#2 215555532 -215555516#1 -24805376#2 -24805376#1 24826412#0 24826412#1 668160773#5 127195808"/>
    </vehicle>
    <vehicle id="veh8" type="veh_passenger" depart="40.00" departLane="best" departSpeed="max">
        <route edges="637980525#0 637980525#1 637980525#2 637980525#3 637980525#4 25543097#0 25543097#1 24790521#0 24790521#1 24790521#2 24790521#3 24790602#0 24790602#1 668160771#0 668160771#1 668160771#2 -229984733#8 -229984733#6 24805373#0 -215555528 215555528 215555557 -229984733#4 -229984733#3 -229984733#2 -229984733#1 -229984733#0"/>
    </vehicle>
    <vehicle id="veh9" type="veh_passenger" depart="45.00" departLane="best" departSpeed="max">
        <route edges="-215555541 24790602#0 24790602#1 24804917 668160769#0 668160769#1 44793789#0 44793789#1 24807742 24807645#0 -24807752#1 -24807752#0 25543096#13 229741782 24807739 -24807633 44796867#0 -44796867#0 24807633 44793904#0 44793904#1 24807752#0 24807752#1 24807752#2 -24807752#2 24807645#1 24807645#2 24807645#3 -24807655 -215555555 229747036#1 229747036#2 215555532 -215555516#1 -24805376#2 -24805376#1 -24805376#0 668160773#7 24826574"/>
    </vehicle>
    <vehicle id="veh10" type="veh_passenger" depart="50.00" departLane="best" departSpeed="max">
        <route edges="24807713#0 -215555530#1 -215555530#0 -44796867#4 -44796867#3 -44796867#2 -44796867#1 -44796867#0 24807633 44793904#0 -24829832#1 24829832#1 44793904#1 24807752#0 24807752#1 24807752#2 -24807752#2 24807645#1 24807645#2 24807645#3 -24807655 -215555555 229747036#1 229747036#2 215555532 -215555516#1 -24805376#2 -24805376#1 -24805376#0 668160773#7 668160773#8 24826328#0 24826328#1"/>
    </vehicle>
    <vehicle id="veh11" type="veh_passenger" depart="55.00" departLane="best" departSpeed="max">
        <route edges="668160773#0 668160773#1 668160773#2 24805374#0 24805374#1 24805374#2 229747040 -229747036#3 -229747036#2 215555584#1 215555584#2 215555575#1 215555575#2 -215555575#2 -215555575#1 -215555584#2 -215555584#1 -215555584#0 24805373#0 24805373#2 24805373#3 24805373#4 668160773#1 668160773#2 668160773#3 24826429"/>
    </vehicle>
    <vehicle id="veh12" type="veh_passenger" depart="60.00" departLane="best" departSpeed="max">
        <route edges="24807713#0 24807713#1 24807594#0 24807594#1 229984706#0 -24807598#2 24807598#2 229984706#1 -49516118#1 -44793917 24807633 44793904#0 44793904#1 24807752#0 24807752#1 24807752#2 -24807752#2 24807645#1 24807645#2 24807645#3 -24807655 -229984733#6 24803893#0 24803893#1 48656851"/>
    </vehicle>
    <vehicle id="veh13" type="veh_passenger" depart="65.00" departLane="best" departSpeed="max">
        <route edges="229739446#0 229739446#1 229739446#2 229739446#3 229739446#4 215555571#0 215555571#1 229747036#0 229747036#1 229747036#2 215555532 -215555516#1 -24805376#2 -24805376#1 -24805376#0 668160773#7 668160773#8 24826328#0 -24826340 24826340 -24826340 637980525#3 637980525#4 25543097#0 25543097#1 24790521#0 24790521#1 24790521#2 24790521#3 24790602#0 24790602#1 668160771#0 -229747037 -697837882#0 -215555515#2 -215555515#1 -215555515#0 215555571#1 229747036#0 229747036#1 229747036#2 229747036#3 -229747040"/>
    </vehicle>
    <vehicle id="veh14" type="veh_passenger" depart="70.00" departLane="best" departSpeed="max">
        <route edges="-24807752#2 -24807752#1 -24807752#0 25543096#13 229741782 24807739 -44796922#3 -44796922#2 -44796922#1 -44796922#0 44796869#0 49516120 -44793952#0 24805161#0 24805161#1 49516099 -49516101 44793964#1 866003620#0 866003620#1 24826156#0 24826156#1 24826156#2 25543096#2 25543096#3 25543096#4 25543096#5 25543096#6 25543096#7 25543096#8 25543096#9 25543096#10 25543096#11 25543096#12 24807752#0 24807752#1 24807752#2 -24807752#2 24807645#1 24807645#2 24807645#3 -24807655 -229984733#6 -229984733#5 -229984733#4 -229984733#3 -229984733#2 -229984733#1 -229984733#0"/>
    </vehicle>
    <vehicle id="veh15" type="veh_passenger" depart="75.00" departLane="best" departSpeed="max">
        <route edges="-24826429 668160773#4 -24826412#1 -24826412#0 24805376#1 24805376#2 229747034 229747040 -229747036#3 -229747036#2 -229747036#1 -229747036#0 215555571#2 215555569#0 215555569#1 215555515#2 697837882#0 229747037 -229747037 -697837882#0 -215555515#2 -215555569#1 -215555569#0 215555571#3 215555584#2 215555584#3 215555516#4 229747039 24805378#0 24805378#1 -24805377 668160773#10 668160773#11 25543097#0 25543097#1 24790521#0 24790521#1 24790521#2 24790521#3 215555541"/>
    </vehicle>
    <vehicle id="veh16" type="veh_passenger" depart="80.00" departLane="best" departSpeed="max">
        <route edges="229739460#0 229739460#1 24804953 24790602#1 668160771#0 -229747037 -697837882#0 -215555515#2 -215555569#1 215555569#1 215555515#2 697837883 668160771#2 -229739446#4 -229739446#3 -229739446#2 44793792 44793791#0 44793791#1 229739461#1"/>
    </vehicle>
    <vehicle id="veh17" type="veh_passenger" depart="85.00" departLane="best" departSpeed="max">
        <route edges="-24807752#2 24807645#1 43960777 44793997#1 44793997#2 44793997#3 24829856 25543096#9 25543096#10 -44796884 44796884 25543096#11 25543096#12 25543096#13 229741782 24807739 -24807633 44793917 49516118#1 -229984706#1 -229984706#0 49516116#3 49516116#4 49516108#0 49516108#1"/>
    </vehicle>
    <vehicle id="veh18" type="veh_passenger" depart="90.00" departLane="best" departSpeed="max">
        <route edges="229739460#0 229739460#1 24804868#3 668160769#0 668160769#1 44793789#0 44793789#1 24807742 24807645#0 -24807752#1 -24807752#0 25543096#13 229741782 24807739 -44796922#3 -24807690 24807596#0 -24807596#0 44793927#4 24807633 44793904#0 44793904#1 24807752#0 24807752#1 24807752#2 -24807752#2 24807645#1 24807645#2 24807645#3 -24803884 215555571#0 215555571#1 215555571#2 215555571#3 215555584#2 215555584#3 215555516#4 229747039 24805378#0 24805378#1 -24805377 668160773#10 668160773#11 25543097#0 25543097#1 24790521#0 24790521#1 24790521#2 198806099"/>
    </vehicle>
    <vehicle id="veh19" type="veh_passenger" depart="95.00" departLane="best" departSpeed="max">
        <route edges="24804868#0 24804953 24790602#1 668160771#0 -229747037 -697837882#0 -215555515#2 -215555515#1 -215555515#0 215555571#1 229747036#0 229747036#1 229747036#2 215555532 -215555516#1 -24805435#1 -24805435#0 -229747039 -215555516#4 -215555584#3 -215555584#2 -215555584#1 -229747036#1 215555555 229984733#8 -229739446#4 -229739446#3 -229739446#2 44793792 44793791#0 44793791#1 229739461#1"/>
    </vehicle>
    <vehicle id="veh20" type="veh_passenger" depart="100.00" departLane="best" departSpeed="max">
        <route edges="668160773#0 668160773#1 668160773#2 24805374#0 24805374#1 215555528 215555557 229984733#5 24803893#0 24803893#1 24803893#2 24807652#0 24807652#1 44794007 -24829824 -24807662#2 -24807662#1 -24807662#0 229984733#1 229984733#2 229984733#3 229984733#4 -215555557 24805373#2 24805373#3 24805373#4 668160773#1 668160773#2 668160773#3 24826429"/>
    </vehicle>
    <vehicle id="veh21" type="veh_passenger" depart="105.00" departLane="best" departSpeed="max">
        <route edges="229984733#0 24807662#0 24807662#1 24807662#2 24829824 25543096#0 25543096#1 25543096#2 25543096#3 25543096#4 25543096#5 25543096#6 25543096#7 25543096#8 25543096#9 44793998 44793997#3 24829856 25543096#9 25543096#10 25543096#11 25543096#12 25543096#13 229741782 24807739 -24807633 44796867#0 44796867#1 44796867#2 44796867#3 44796867#4 44796867#5"/>
    </vehicle>
    <vehicle id="veh22" type="veh_passenger" depart="110.00" departLane="best" departSpeed="max">
        <route edges="-24807752#2 -24807752#1 -24807752#0 25543096#13 229741782 24807739 -24807633 44796867#0 44796867#1 44796867#2 44796867#3 44796867#4 215555530#0 215555530#1 -215555530#1 -215555530#0 -44796867#4 -44796867#3 -44796867#2 -44796867#1 24807701#0 215555563"/>
    </vehicle>
    <vehicle id="veh23" type="veh_passenger" depart="115.00" departLane="best" departSpeed="max">
        <route edges="-24826429 668160773#4 -24826412#1 215555536#0 229747043#0 24805374#1 215555528 215555557 -229984733#4 24807659 24807652#1 44794007 -24829824 24829824 25543096#0 25543096#1 25543096#2 25543096#3 25543096#4 25543096#5 25543096#6 25543096#7 25543096#8 25543096#9 25543096#10 25543096#11 25543096#12 25543096#13 229741782 24807739 -24807633 44793917 49516118#1 -229984706#1 -229984706#0 49516116#3 49516116#4 49516108#0 49516108#1"/>
    </vehicle>
    <vehicle id="veh24" type="veh_passenger" depart="120.00" departLane="best" departSpeed="max">
        <route edges="24828279#0 24828279#1 24828277#3 24828277#4 24805227 44793952#0 -49516120 -44796869#0 44796922#0 44796922#1 44796922#2 44796922#3 44793904#0 44793904#1 24807752#0 24807752#1 24807752#2 -24807752#2 24807645#1 24807645#2 24807645#3 -24803884 215555571#0 215555515#0 -215555515#0 215555571#1 229747036#0 215555555 24807655 24807645#5 24807645#6 25543096#7 25543096#8 25543096#9 25543096#10 25543096#11 25543096#12 25543096#13 229741782 24807739 -24807633 44793917 49516118#1 -229984706#1 -229984706#0 49516116#3 49516116#4 24807577#0 24828319"/>
    </vehicle>
    <vehicle id="veh25" type="veh_passenger" depart="125.00" departLane="best" departSpeed="max">
        <route edges="-44796867#5 -44796867#4 215555524#0 215555524#1 24807594#1 49516116#3 49516116#4 24807577#0 24807577#1 24828277#0 24828277#1 24828277#2 24828277#3 24828277#4 24805227 44793952#0 -49516120 -44796869#0 44796922#0 44796922#1 44796922#2 44796922#3 44793904#0 44793904#1 24807752#0 24807752#1 24807752#2"/>
    </vehicle>
    <vehicle id="veh26" type="veh_passenger" depart="130.00" departLane="best" departSpeed="max">
        <route edges="-24826429 668160773#4 -24826412#1 215555536#0 229747043#0 24805374#1 215555528 215555557 -229984733#4 24807659 24807652#1 44794007 -44794007 44794007 -24829824 -24807662#2 -24807662#1 -24807662#0 229984733#1 229984733#2 229984733#3 229984733#4 -215555557 24805373#2 24805373#3 24805373#4 668160773#1 668160773#2 668160773#3 24826429"/>
    </vehicle>
    <vehicle id="veh27" type="veh_passenger" depart="135.00" departLane="best" departSpeed="max">
        <route edges="-24826429 668160773#4 -24826412#1 -24826412#0 24805376#1 24805376#2 229747034 229747040 229747036#4 -129534287 24803893#0 24803893#1 24803893#2 24803893#3 25543096#5 25543096#6 25543096#7 25543096#8 25543096#9 25543096#10 25543096#11 25543096#12 25543096#13 229741782 24807739 -44796922#3 -44796922#2 -44796922#1 -44796922#0 44796869#0 49516120 -44793952#0 24805161#0 24805161#1 24805161#2 49516098#0 49516098#1"/>
    </vehicle>
    <vehicle id="veh28" type="veh_passenger" depart="140.00" departLane="best" departSpeed="max">
        <route edges="-44796867#5 -44796867#4 -44796867#3 -44796867#2 -44796867#1 -44796867#0 24807633 44793904#0 44793904#1 24807752#0 24807752#1 24807752#2 -24807752#2 24807645#1 24807645#2 24807645#3 -24803884 -229739446#4 -229739446#3 -229739446#2 44793792 -44793792 44793792 44793791#0 668160769#1 668160769#2"/>
    </vehicle>
    <vehicle id="veh29" type="veh_passenger" depart="145.00" departLane="best" departSpeed="max">
        <route edges="-866003620#1 866003620#1 24826156#0 24826156#1 24826156#2 25543096#2 25543096#3 25543096#4 25543096#5 25543096#6 25543096#7 25543096#8 25543096#9 25543096#10 25543096#11 25543096#12 24807752#0 24807752#1 24807752#2 -24807752#2 24807645#1 24807645#2 24807645#3 -24807655 -215555555 229747036#1 -229747036#1 229747036#1 229747036#2 229747036#3 -229747040"/>
    </vehicle>
    <vehicle id="veh30" type="veh_passenger" depart="150.00" departLane="best" departSpeed="max">
        <route edges="-215555541 24790602#0 24790602#1 24804917 668160769#0 668160769#1 44793789#0 44793789#1 24807742 24807645#0 24807645#1 24807645#2 24807645#3 24807645#5 24807645#6 25543096#7 25543096#8 25543096#9 25543096#10 25543096#11 25543096#12 25543096#13 229741782 24807739 -24807633 44796867#0 44796867#1 44796867#2 44796867#3 44796867#4 44796867#5"/>
    </vehicle>
    <vehicle id="veh31" type="veh_passenger" depart="155.00" departLane="best" departSpeed="max">
        <route edges="-44796922#6 -44796922#5 -44796922#4 44793904#0 44793904#1 24807752#0 24807752#1 24807752#2 -24807752#2 24807645#1 24807645#2 24807645#3 -24803884 215555571#0 215555571#1 215555571#2 215555571#3 215555584#2 -215555584#2 -215555584#1 -229747036#1 215555555 229984733#8 -229739446#4 -229739446#3 -229739446#2 44793792 44793791#0 44793791#1 229739461#1"/>
    </vehicle>
    <vehicle id="veh32" type="veh_passenger" depart="160.00" departLane="best" departSpeed="max">
        <route edges="668160773#0 668160773#1 668160773#2 24805374#0 24805374#1 215555528 215555557 229984733#5 24803893#0 24803893#1 24803893#2 24803893#3 25543096#5 25543096#6 25543096#7 25543096#8 25543096#9 25543096#10 25543096#11 25543096#12 24807752#0 24807752#1 24807752#2 -24807752#2 24807645#1 24807645#2 24807645#3 -24803884 -229739446#4 -229739446#3 -229739446#2 44793792 44793791#0 668160769#1 668160769#2"/>
    </vehicle>
    <vehicle id="veh33" type="veh_passenger" depart="165.00" departLane="best" departSpeed="max">
        <route edges="24828279#0 24828279#1 24828277#3 24828277#4 24805227 44793952#0 -49516120 -44796869#0 44796922#0 44796922#1 44796922#2 44796922#3 44793904#0 44793904#1 24807752#0 24807752#1 24807752#2 -24807752#2 24807645#1 24807645#2 24807645#3 -24807655 -215555555 229747036#1 229747036#2 215555532 -215555516#1 229747034 229747040 229747036#4 -129534287 229984733#6 229984733#8 -229739446#4 -229739446#3 -229739446#2 44793792 44793791#0 44793791#1 44793791#3"/>
    </vehicle>
    <vehicle id="veh35" type="veh_passenger" depart="175.00" departLane="best" departSpeed="max">
        <route edges="229739460#0 229739460#1 24804953 24790602#1 668160771#0 668160771#1 668160771#2 -229984733#8 -229984733#6 24805373#0 24805373#2 24805373#3 -229747043#1 -229747043#0 215555536#2 -215555527 -24805376#2 -24805376#1 -24805376#0 668160773#7 668160773#8 668160773#10 668160773#11 25543097#0 25543097#1 24790521#0 -229744979 24804444#2 24804444#3"/>
    </vehicle>
    <vehicle id="veh36" type="veh_passenger" depart="180.00" departLane="best" departSpeed="max">
        <route edges="-44796922#6 -44796922#5 -44796922#4 44793904#0 44793904#1 24807752#0 24807752#1 24807752#2 -24807752#2 24807645#1 24807645#2 24807645#3 -24803884 215555571#0 215555515#0 215555515#1 215555515#2 697837882#0 229747037 668160771#1 668160771#2 24803884 24807645#5 24807645#6 25543096#7 25543096#8 25543096#9 25543096#10 25543096#11 25543096#12 25543096#13 229741782 24807739 -44796922#3 -44796922#2 -44796922#1 -44796922#0 44796869#0 49516120 -44793952#0 24805161#0 24805161#1 24805161#2 49516098#0 49516098#1"/>
    </vehicle>
    <vehicle id="veh37" type="veh_passenger" depart="185.00" departLane="best" departSpeed="max">
        <route edges="-24826429 668160773#4 668160773#5 668160773#7 668160773#8 668160773#10 668160773#11 25543097#0 25543097#1 24790521#0 24790521#1 24790521#2 198806099"/>
    </vehicle>
    <vehicle id="veh38" type="veh_passenger" depart="190.00" departLane="best" departSpeed="max">
        <route edges="48656852#0 44793952#0 -49516120 -44796869#0 44796922#0 44796922#1 44796922#2 44796922#3 44796922#4 -24807701#1 215555563"/>
    </vehicle>
    <vehicle id="veh39" type="veh_passenger" depart="195.00" departLane="best" departSpeed="max">
        <route edges="229739460#0 229739460#1 24804868#3 668160769#0 668160769#1 44793789#0 44793789#1 24807742 24807645#0 -24807752#1 -24807752#0 25543096#13 229741782 24807739 -44796922#3 -24807690 24807596#0 -24807596#0 44793927#4 24807633 44793904#0 44793904#1 24807752#0 24807752#1 24807752#2 -24807752#2 24807645#1 24807645#2 24807645#3 -24807655 -215555555 229747036#1 229747036#2 215555532 -215555516#1 -24805376#2 -24805376#1 24826412#0 24826412#1 668160773#5 127195808"/>
    </vehicle>
    <vehicle id="veh40" type="veh_passenger" depart="200.00" departLane="best" departSpeed="max">
        <route edges="24804868#0 24804868#3 668160769#0 668160769#1 44793789#0 44793789#1 24807742 24807645#0 -24807752#1 -24807752#0 25543096#13 229741782 24807739 -24807633 44796867#0 44796867#1 44796867#2 44796867#3 44796867#4 44796867#5"/>
    </vehicle>
    <vehicle id="veh41" type="veh_passenger" depart="205.00" departLane="best" departSpeed="max">
        <route edges="-866003620#1 866003620#1 24826156#0 24826156#1 24826156#2 25543096#2 25543096#3 25543096#4 25543096#5 25543096#6 25543096#7 25543096#8 25543096#9 25543096#10 25543096#11 25543096#12 24807752#0 24807752#1 24807752#2 -24807752#2 24807645#1 24807645#2 24807645#3 -24807655 -229984733#6 129534287 -229747036#4 229747036#4 -129534287 215555584#0 215555584#1 215555584#2 215555575#1 215555575#2"/>
    </vehicle>
    <vehicle id="veh42" type="veh_passenger" depart="210.00" departLane="best" departSpeed="max">
        <route edges="-127195808 24805376#0 24805376#1 24805376#2 229747034 229747040 229747036#4 -129534287 24803893#0 24803893#1 24803893#2 24803893#3 25543096#5 25543096#6 25543096#7 25543096#8 25543096#9 25543096#10 25543096#11 25543096#12 25543096#13 229741782 24807739 -24807633 44793917 49516119 -24807596#0 24807690 -44796922#2 -44796922#1 -44796922#0 44796869#0 49516120 -44793952#0 24805161#0 24805161#1 24805161#2 49516098#0 49516098#1"/>
    </vehicle>
    <vehicle id="veh43" type="veh_passenger" depart="215.00" departLane="best" departSpeed="max">
        <route edges="24807713#0 -215555530#1 -215555530#0 -44796867#4 -44796867#3 -44796867#2 -44796867#1 -44796867#0 24807633 44793904#0 44793904#1 24807752#0 24807752#1 24807752#2 -24807752#2 24807645#1 24807645#2 24807645#3 -24803884 215555571#0 215555515#0 215555515#1 215555515#2 -215555534 -697837884#1 -697837884#0 -697837882#1 -697837882#0 -215555515#2 -215555515#1 -215555515#0 215555571#1 229747036#0 229747036#1 229747036#2 229747036#3 -229747040"/>
    </vehicle>
    <vehicle id="veh44" type="veh_passenger" depart="220.00" departLane="best" departSpeed="max">
        <route edges="24828279#0 24828279#1 24828277#3 24828277#4 24805227 44793952#0 -49516120 -44796869#0 44796922#0 44796922#1 44796922#2 44796922#3 44793904#0 44793904#1 24807752#0 24807752#1 24807752#2 -24807752#2 24807645#1 24807645#2 24807645#3 -24803884 -229739446#4 -229739446#3 -229739446#2 44793792 44793791#0 44793791#1 229739460#1 24804868#3 668160769#0 668160769#1 44793789#0 44793789#1 229739446#1 229739446#2 229739446#3 229739446#4 -229984733#8 -229984733#6 -229984733#5 -229984733#4 -229984733#3 -229984733#2 -229984733#1 -229984733#0"/>
    </vehicle>
    <vehicle id="veh45" type="veh_passenger" depart="225.00" departLane="best" departSpeed="max">
        <route edges="-48656851 24803893#2 24803893#3 25543096#5 25543096#6 25543096#7 25543096#8 25543096#9 25543096#10 25543096#11 25543096#12 24807752#0 24807752#1 24807752#2 -24807752#2 24807645#1 24807645#2 24807645#3 -24803884 -229739446#4 -229739446#3 -229739446#2 -229739446#1 24807742 24807645#0 -24807752#1 -24807752#0 25543096#13 229741782 24807739 -44796922#3 -44796922#2 -44796922#1 -44796922#0 44796869#0 49516120 44793952#1"/>
    </vehicle>
    <vehicle id="veh46" type="veh_passenger" depart="230.00" departLane="best" departSpeed="max">
        <route edges="24804918#0 24804918#1 -44793792 229739446#2 229739446#3 229739446#4 -229984733#8 -229984733#6 -229984733#5 -229984733#4 -229984733#3 229984733#3 24807659 24807652#1 24807652#2 25543096#2 25543096#3 25543096#4 25543096#5 25543096#6 25543096#7 25543096#8 25543096#9 25543096#10 25543096#11 25543096#12 24807752#0 24807752#1 24807752#2"/>
    </vehicle>
    <vehicle id="veh47" type="veh_passenger" depart="235.00" departLane="best" departSpeed="max">
        <route edges="127195809 24805374#0 24805374#1 215555528 215555557 229984733#5 24803893#0 24803893#1 24803893#2 24803893#3 25543096#5 25543096#6 25543096#7 25543096#8 25543096#9 25543096#10 25543096#11 25543096#12 25543096#13 229741782 24807739 -24807633 -44793927#4 -44793927#2 -44796872 -44796922#1 -44796922#0 44796869#0 49516120 -44793952#0 24805161#0 24805161#1 24805161#2 49516098#0 49516098#1"/>
    </vehicle>
    <vehicle id="veh48" type="veh_passenger" depart="240.00" departLane="best" departSpeed="max">
        <route edges="-44796922#6 -44796922#5 -44796922#4 44793904#0 -24829832#1 -24829832#0 24829832#0 44796884 25543096#11 25543096#12 24807752#0 24807752#1 24807752#2 -24807752#2 24807645#1 24807645#2 24807645#3 -24807655 -215555555 229747036#1 229747036#2 215555532 -215555516#1 -24805376#2 -24805376#1 -24805376#0 668160773#7 668160773#8 24826328#0 24826328#1"/>
    </vehicle>
    <vehicle id="veh49" type="veh_passenger" depart="245.00" departLane="best" departSpeed="max">
        <route edges="24804868#0 24804868#3 668160769#0 668160769#1 44793789#0 44793789#1 24807742 24807645#0 -24807752#1 -24807752#0 25543096#13 229741782 24807739 44796922#4 -24807701#1 215555563"/>
    </vehicle>
    <vehicle id="veh50" type="veh_passenger" depart="250.00" departLane="best" departSpeed="max">
        <route edges="668160773#0 668160773#1 668160773#2 24805374#0 24805374#1 215555528 215555557 -229984733#4 24807659 24807652#1 44794007 -24829824 -24807662#2 -24807662#1 -24807662#0 229984733#1 229984733#2 229984733#3 229984733#4 229984733#5 215555584#0 215555584#1 215555584#2 215555584#3 215555516#4 229747039 24805378#0 24805378#1 -24805377 668160773#10 668160773#11 25543097#0 25543097#1 24790521#0 -229744979 24804444#2 24804444#3"/>
    </vehicle>
    <vehicle id="veh51" type="veh_passenger" depart="255.00" departLane="best" departSpeed="max">
        <route edges="-866003620#1 866003620#1 24826156#0 24826156#1 24826156#2 25543096#2 25543096#3 25543096#4 25543096#5 25543096#6 25543096#7 25543096#8 25543096#9 25543096#10 25543096#11 25543096#12 25543096#13 229741782 24807739 -44796922#3 -24807690 24807596#0 24807596#1 -229984706#2 -49516118#1 -44793917 24807633 44793904#0 44793904#1 24807752#0 24807752#1 24807752#2 -24807752#2 24807645#1 24807645#2 24807645#3 -24803884 215555571#0 215555571#1 215555571#2 215555571#3 215555584#2 215555584#3 215555516#4 229747039 24805378#0 24805378#1 -24805377 668160773#10 668160773#11 25543097#0 25543097#1 24790521#0 24790521#1 24790521#2 24790521#3 198806390"/>
    </vehicle>
    <vehicle id="veh52" type="veh_passenger" depart="260.00" departLane="best" departSpeed="max">
        <route edges="-43960791 229748770 24807645#0 24807645#1 24807645#2 24807645#3 -24803884 215555571#0 215555571#1 215555571#2 215555571#3 215555584#2 215555584#3 215555516#4 229747039 24805378#0 24805378#1 -24805377 24805377 229747044#0 229747044#1 24805376#2 215555527"/>
    </vehicle>
    <vehicle id="veh53" type="veh_passenger" depart="265.00" departLane="best" departSpeed="max">
        <route edges="-24807752#2 24807645#1 24807645#2 24807645#3 -24803884 -229739446#4 -229739446#3 -229739446#2 -229739446#1 24807742 24807645#0 -24807752#1 -24807752#0 25543096#13 229741782 24807739 -24807633 44793917 49516118#1 -229984706#1 -229984706#0 49516116#3 49516116#4 24807577#0 24807577#1 24828277#0 24828277#1 24828277#2 24828277#3 24828277#4 24828277#5"/>
    </vehicle>
    <vehicle id="veh54" type="veh_passenger" depart="270.00" departLane="best" departSpeed="max">
        <route edges="-24807752#2 -24807752#1 -24807752#0 25543096#13 229741782 24807739 -24807633 44793917 49516118#1 -229984706#1 -229984706#0 49516116#3 49516116#4 24807577#0 24807577#1 24828277#0 24828277#1 24828277#2 24828277#3 49516103 24828279#1 24828277#3 24828277#4 24805227 44793952#0 -49516120 -44796869#0 44796922#0 44796922#1 44796922#2 44796922#3 44793904#0 44793904#1 24807752#0 24807752#1 24807752#2 -24807752#2 24807645#1 24807645#2 24807645#3 -24807655 -229984733#6 24803893#0 24803893#1 48656851"/>
    </vehicle>
    <vehicle id="veh55" type="veh_passenger" depart="275.00" departLane="best" departSpeed="max">
        <route edges="-198806099 24790521#3 24790602#0 24790602#1 668160771#0 668160771#1 668160771#2 24803884 24807645#5 24807645#6 25543096#7 44793970#0 -44793994#1 24829850#1 25543096#6 25543096#7 25543096#8 25543096#9 25543096#10 25543096#11 25543096#12 25543096#13 229741782 24807739 -24807633 44793917 49516118#1 -229984706#1 -229984706#0 49516116#3 49516116#4 24807577#0 24828319"/>
    </vehicle>
    <vehicle id="veh56" type="veh_passenger" depart="280.00" departLane="best" departSpeed="max">
        <route edges="-24807752#2 24807645#1 24807645#2 24807645#3 -24807655 -229984733#6 -229984733#5 -229984733#4 24807659 24807652#1 24807652#2 25543096#2 25543096#3 25543096#4 25543096#5 25543096#6 25543096#7 25543096#8 25543096#9 25543096#10 25543096#11 25543096#12 25543096#13 229741782 24807739 -24807633 44793917 49516118#1 -229984706#1 -229984706#0 49516116#3 49516116#4 49516108#0 49516108#1"/>
    </vehicle>
    <vehicle id="veh57" type="veh_passenger" depart="285.00" departLane="best" departSpeed="max">
        <route edges="127195809 24805374#0 24805374#1 215555528 215555557 229984733#5 24803893#0 24803893#1 24803893#2 24803893#3 25543096#5 25543096#6 25543096#7 25543096#8 25543096#9 25543096#10 25543096#11 25543096#12 25543096#13 229741782 24807739 -24807633 44796867#0 44796867#1 24807598#0 24807598#2 229984706#1 -49516118#1 -229984714 -24807598#0 44796867#2 44796867#3 44796867#4 44796867#5"/>
    </vehicle>
    <vehicle id="veh58" type="veh_passenger" depart="290.00" departLane="best" departSpeed="max">